48
Lattice = "8.39999961853 0.0 0.0 0.0 8.39999961853 0.0 0.0 0.0 12.6000003815" Properties=species:S:1:pos:R:3:forces:R:3 energy=-555.899463 stress="44324.590000000004 -88.44 -112.43 -88.44 44600.920000000006 281.49 -112.43 281.49 42648.37"
Ta 8.39872 8.3966 0.05505 0.06463 0.245549 -0.122629
Ta 2.17054 2.11769 12.51793 -1.187171 -0.130259 0.732895
Ta 2.0533 8.35895 2.13547 0.233297 0.276883 -0.580405
Ta 8.38008 2.10628 2.0551 0.08252 -0.095821 -0.260646
Ta 4.23293 0.07434 0.0467 -0.277801 -0.575764 -0.709591
Ta 6.2651 2.18178 0.00596 0.79823 -0.246753 -0.159608
Ta 6.25171 8.32714 2.06 0.878956 0.397963 0.635148
Ta 4.23709 2.08122 2.04351 -0.562206 0.342387 0.661272
Ta 0.01795 4.28026 0.03906 0.03593 -0.753743 -0.492226
Ta 2.17486 6.29122 12.54891 -0.292549 0.564337 0.480079
Ta 2.07869 4.28118 2.16843 0.802077 -0.587367 -0.741571
Ta 0.03245 6.22138 2.08055 -0.303096 1.061223 0.205298
Ta 0.05248 0.05717 4.13572 -0.808599 -0.191264 0.378476
Ta 2.07678 2.17993 4.13839 0.013435 -0.436677 0.322097
Ta 2.12704 8.36983 6.31443 -0.47643 0.64169 -0.334506
Ta 8.3705 2.08925 6.34697 0.005647 -0.087278 -0.862051
Ta 8.38688 0.07691 8.44598 -0.055963 -0.649155 -0.697661
Ta 2.01928 2.13994 8.43334 1.328975 0.162973 -0.03981
Ta 2.04284 0.00054 10.51116 0.153873 0.277763 0.303457
Ta 8.3396 2.16616 10.45414 0.471147 -0.416926 1.590978
Ta 4.14844 4.17913 12.54023 0.538274 0.344873 0.560429
Ta 6.2757 6.28315 12.58489 -0.093969 -0.269964 -0.315362
Ta 6.31105 4.1801 2.07691 -0.802185 0.349566 -0.345139
Ta 4.1932 6.35885 2.05181 -0.289199 -0.820619 0.167236
Ta 4.13608 8.35781 4.16416 0.306789 0.418729 -0.132841
Ta 6.25772 2.18015 4.23088 0.265817 -1.013408 -0.174927
Ta 6.21768 8.33441 6.28609 0.203365 0.059608 -0.446274
Ta 4.21646 2.0257 6.25407 -0.176754 0.397415 0.650479
Ta 4.11746 0.08256 8.45795 0.186491 -0.410856 0.068111
Ta 6.30974 2.0663 8.41949 -0.752342 -0.087175 -0.586156
Ta 6.3525 8.38938 10.49726 -0.44574 0.07188 0.558282
Ta 4.22552 2.10093 10.54512 -0.02775 -0.023834 -0.918408
Ta 8.31931 4.18624 4.12268 0.353673 0.002916 1.279805
Ta 2.07372 6.27335 4.24137 -0.117409 -0.2389 0.08123
Ta 2.14629 4.16947 6.30781 -0.615193 -0.022235 0.165676
Ta 8.34652 6.37659 6.30287 0.054827 -0.339782 -0.192988
Ta 0.03288 4.14327 8.42559 -0.136471 1.054922 -0.681011
Ta 2.01843 6.3563 8.36368 0.358704 -0.63918 0.366829
Ta 2.08465 4.24206 10.56487 -0.018445 0.035124 -1.175245
Ta 8.39771 6.35777 10.52103 -0.075528 -0.463245 -0.015453
Ta 4.18258 4.14181 4.17443 0.116808 0.364647 -0.254759
Ta 6.22019 6.23685 4.13448 0.381966 0.454078 0.397164
Ta 6.28851 4.24961 6.33299 0.186246 0.002802 0.096346
Ta 4.13463 6.26413 6.29428 0.495766 0.350443 0.359588
Ta 4.281 4.2574 8.39181 -0.903776 -0.621644 0.379359
Ta 6.28467 6.34316 8.44502 0.157149 0.143513 -0.095499
Ta 6.35243 4.1584 10.43469 -0.364583 0.937808 0.436386
Ta 4.17724 6.33497 10.52826 0.308567 0.162755 -0.541855
48
Lattice = "8.39999961853 0.0 0.0 0.0 8.39999961853 0.0 0.0 0.0 12.6000003815" Properties=species:S:1:pos:R:3:forces:R:3 energy=-555.922478 stress="44249.71 -651.04 -186.65 -651.04 44112.909999999996 -1023.35 -186.65 -1023.35 43244.3"
Ta 0.06343 8.3606 12.52321 -0.696701 0.940785 0.465297
Ta 2.13463 2.12169 0.0276 -1.12333 0.576705 -0.026641
Ta 2.07364 8.36228 2.04043 -0.26239 0.268211 0.488051
Ta 8.37571 2.16668 2.14254 0.418469 -0.605551 -0.528424
Ta 4.12651 0.04419 0.00196 0.983012 -0.612252 -0.323205
Ta 6.25688 2.11357 0.01148 0.864439 -0.555613 0.554016
Ta 6.35803 0.02339 2.17882 0.004319 -0.071235 -0.60434
Ta 4.12492 2.02962 2.07119 0.768236 0.704677 0.998809
Ta 8.32267 4.2038 0.03156 0.384971 -0.156549 -0.15821
Ta 2.13999 6.25061 0.01163 0.206046 -0.408259 -0.573426
Ta 2.16033 4.27176 2.10974 -0.144662 -0.316522 0.257436
Ta 0.07325 6.34677 2.09878 -0.79538 -0.463238 0.011227
Ta 0.03163 8.35134 4.23884 0.243806 0.858804 0.059427
Ta 2.09614 2.16903 4.20803 0.184215 -0.612876 -0.414497
Ta 2.15726 8.37369 6.37727 -0.165489 0.100422 -0.659123
Ta 0.02483 2.126 6.26528 -0.175983 -0.609909 0.638816
Ta 8.38466 8.32281 8.34428 0.169266 -0.211404 0.509213
Ta 2.03906 2.07515 8.33331 0.465788 0.459079 0.436569
Ta 2.10907 0.07467 10.53386 0.194596 0.006574 -0.731867
Ta 8.33297 2.17086 10.43991 0.550055 -0.386364 0.529968
Ta 4.27897 4.1393 0.00645 0.009889 0.528282 0.483017
Ta 6.32729 6.28968 12.57566 -0.264177 0.642002 0.143135
Ta 6.36828 4.23582 2.14993 -0.643207 -0.021355 0.110192
Ta 4.26013 6.31388 2.06529 0.111216 0.212384 0.388281
Ta 4.14382 0.05221 4.19611 0.133795 -0.272342 0.110067
Ta 6.35676 2.13277 4.27931 -0.64253 -0.80079 -0.286094
Ta 6.34512 8.331 6.35294 -0.428755 0.834939 -0.239901
Ta 4.2156 2.15214 6.2277 0.270035 -0.158319 0.779826
Ta 4.21566 0.03803 8.38231 0.083944 0.274668 0.537654
Ta 6.36545 2.10057 8.38811 -0.533646 0.09587 -0.966206
Ta 6.3135 0.07881 10.48441 -0.274002 -0.668893 0.02457
Ta 4.26171 2.16526 10.52074 -0.418059 -0.459074 -0.898808
Ta 8.3812 4.12205 4.26058 0.319127 1.186909 -0.691015
Ta 2.03751 6.37506 4.22969 0.912322 -0.679112 -0.028629
Ta 2.10316 4.17066 6.25287 0.262251 0.67613 0.437224
Ta 0.01168 6.26992 6.26445 0.470148 -0.110432 0.580066
Ta 0.00065 4.25404 8.40936 0.720462 0.320078 -0.095225
Ta 2.15141 6.3154 8.39974 -0.210605 -0.239741 0.525179
Ta 2.10941 4.11716 10.53789 -0.294631 0.328036 -0.2806
Ta 0.02774 6.34503 10.55194 0.052179 -0.561462 -0.610592
Ta 4.27746 4.26322 4.25824 -0.303269 -0.080042 -0.881987
Ta 6.32942 6.36807 4.26719 -0.071872 -0.096612 -0.894702
Ta 6.34514 4.25616 6.31634 -0.236463 -0.645396 0.127271
Ta 4.26742 6.30384 6.28532 -1.015367 0.203758 -0.319441
Ta 4.19566 4.27408 8.40465 -0.669454 -1.290586 -0.449496
Ta 6.21853 6.2172 8.36939 0.704437 1.092583 0.697829
Ta 6.30129 4.2155 10.41714 0.33095 0.1172 0.467289
Ta 4.23757 6.23742 10.53163 -0.447998 0.665832 0.302002
48
Lattice = "8.39999961853 0.0 0.0 0.0 8.39999961853 0.0 0.0 0.0 12.6000003815" Properties=species:S:1:pos:R:3:forces:R:3 energy=-555.800269 stress="44944.52 20.43 -53.49 20.43 46278.61 29.84 -53.49 29.84 42171.32"
Ta 8.39366 0.03327 12.53757 0.281471 -0.21858 0.714835
Ta 2.13799 2.17663 0.08107 -0.242623 -0.691544 -0.821606
Ta 2.1586 0.00804 2.08871 -0.840779 0.227491 0.043738
Ta 0.07616 2.11667 2.10673 -0.564953 -0.14659 -0.53106
Ta 4.15103 0.01208 0.04902 0.594481 0.453625 -0.068399
Ta 6.25134 2.11148 12.51753 0.377615 -0.192108 1.200692
Ta 6.34616 0.06815 2.1539 0.172975 -0.678259 -0.601449
Ta 4.25478 2.13099 2.16677 0.103092 -0.008648 -0.297252
Ta 8.32309 4.25914 0.06259 0.571757 -0.370889 -0.326093
Ta 2.18289 6.3341 0.04696 -0.829016 -0.174777 -0.58409
Ta 2.17634 4.18641 2.09151 -0.422429 0.255137 0.485834
Ta 0.06508 6.22975 2.07834 -0.463567 0.907706 -0.064984
Ta 0.03316 8.35006 4.12414 -0.730534 -0.238153 0.413363
Ta 2.082 2.07294 4.20331 0.425673 -0.20545 -0.321985
Ta 2.12216 0.0105 6.23718 0.020646 -0.010904 0.435072
Ta 0.03286 2.07054 6.23343 -0.520711 -0.034403 0.247056
Ta 8.36331 0.02515 8.43591 0.078206 -0.188894 -0.203212
Ta 2.01725 2.02047 8.37346 0.945609 0.479423 0.375213
Ta 2.13829 8.32424 10.45876 -0.581344 1.386424 0.908562
Ta 8.35549 2.12524 10.51529 0.852839 -0.295749 0.265562
Ta 4.16491 4.22554 0.0009 0.715672 -0.095676 -0.213922
Ta 6.22371 6.32022 12.53036 0.187246 0.040385 0.908943
Ta 6.36757 4.22353 2.09189 -0.874971 0.203062 0.00729
Ta 4.13315 6.3638 2.09505 0.977658 -0.635482 0.37092
Ta 4.23722 8.33801 4.14924 0.176574 0.229478 0.507526
Ta 6.35365 2.15131 4.17453 0.12327 -0.302231 0.057467
Ta 6.24548 0.08185 6.31737 0.13665 -0.415086 -0.30141
Ta 4.2241 2.07465 6.23581 0.013977 0.192163 0.497879
Ta 4.19905 8.3678 8.46852 0.198161 0.792819 -0.702669
Ta 6.2848 2.06186 8.4824 -0.027942 0.482082 -0.848532
Ta 6.29377 8.32663 10.54116 0.105969 0.400999 0.031916
Ta 4.27399 2.1012 10.56089 -1.346927 0.176649 -0.650846
Ta 0.04908 4.20115 4.17826 0.10887 0.65821 0.312297
Ta 2.06654 6.36455 4.27901 0.165742 -0.555047 -0.271572
Ta 2.17095 4.16446 6.22477 -0.421266 -0.000369 0.715516
Ta 8.32881 6.3256 6.36766 0.454331 0.163972 -0.301611
Ta 0.05742 4.18749 8.33872 0.082852 0.081218 0.003436
Ta 2.15697 6.37663 8.42585 -0.958747 -0.720851 -0.438235
Ta 2.03852 4.15529 10.56738 0.183579 0.144348 -0.516283
Ta 0.0099 6.30552 10.54233 0.385985 -0.309035 -0.170827
Ta 4.16427 4.18342 4.16227 0.140605 0.544738 -0.035124
Ta 6.24236 6.2516 4.26779 0.391419 0.304507 -0.502905
Ta 6.3071 4.18976 6.23024 -0.166338 -0.369336 0.911871
Ta 4.13743 6.24505 6.36665 0.716072 0.416956 -0.252837
Ta 4.20011 4.24099 8.46012 -0.222169 -0.850244 0.096683
Ta 6.34341 6.33047 8.43181 -0.209113 -0.500978 -0.235576
Ta 6.38029 4.16076 10.48343 -0.380969 0.906191 -0.2817
Ta 4.17561 6.36228 10.50253 0.115399 -1.2383 0.032512
48
Lattice = "8.39999961853 0.0 0.0 0.0 8.39999961853 0.0 0.0 0.0 12.6000003815" Properties=species:S:1:pos:R:3:forces:R:3 energy=-556.196151 stress="44094.64 176.91000000000003 257.40000000000003 176.91000000000003 41950.53 439.89 257.40000000000003 439.89 40028.060000000005"
Ta 8.37577 0.07732 12.54307 0.193396 -0.499329 -0.077718
Ta 2.15528 2.07008 0.06672 -0.32228 0.17168 -0.769823
Ta 2.17608 0.01156 2.06262 -0.575545 -0.144242 0.553705
Ta 8.36759 2.03815 2.01865 0.158421 0.357495 0.477149
Ta 4.25295 8.39299 0.01959 -0.129413 -0.3983 -0.769823
Ta 6.3041 2.15126 12.55831 -0.100908 -0.537014 0.579287
Ta 6.31819 8.348 2.11631 -0.47465 0.826061 -0.151195
Ta 4.12134 2.08818 2.01802 1.198272 0.44388 0.857287
Ta 0.08271 4.2036 12.59844 -0.118028 0.163914 0.431759
Ta 2.01753 6.35781 0.0714 0.494708 -0.055352 -1.028673
Ta 2.08391 4.19281 2.14837 -0.158375 0.168457 0.181091
Ta 8.38687 6.38119 2.07973 0.392875 -0.502905 0.230173
Ta 1e-05 8.39354 4.1693 0.107276 0.205353 0.093359
Ta 2.08062 2.07046 4.21883 0.026291 0.31706 0.006631
Ta 2.05743 8.3971 6.26987 -0.209663 0.356146 0.194858
Ta 8.34982 2.15852 6.27812 0.272828 -0.518433 0.131469
Ta 0.043 0.03735 8.38109 -0.323399 0.174941 0.265006
Ta 2.1683 2.12031 8.32959 -0.372149 0.123767 0.247418
Ta 2.03915 0.06596 10.44595 0.608304 -0.370142 0.153462
Ta 0.0392 2.15708 10.57335 -0.077003 -0.470665 -0.584646
Ta 4.18371 4.19955 12.55926 -0.371136 0.959833 0.363516
Ta 6.365 6.38013 0.00232 -0.186193 -0.847087 -0.020211
Ta 6.34421 4.17285 2.04012 -0.364574 0.228708 0.09004
Ta 4.18677 6.32858 2.09014 0.198032 -0.567994 -0.060119
Ta 4.19831 0.06384 4.24991 0.200299 -0.125509 -0.197675
Ta 6.33101 2.08404 4.1756 -0.576465 0.148029 -0.203471
Ta 6.36187 8.33375 6.27465 0.032174 0.074865 0.331846
Ta 4.24224 2.04345 6.36746 0.424152 0.728418 -0.803879
Ta 4.20469 0.06736 8.35055 -0.071691 -0.324778 0.714795
Ta 6.36637 2.08974 8.39588 -0.27761 0.003974 0.2077
Ta 6.31852 8.34416 10.47042 0.145941 0.789314 -0.172407
Ta 4.26553 2.13504 10.56332 -0.447518 -0.543415 -0.681653
Ta 8.33751 4.1766 4.23019 0.47446 0.317403 -0.677715
Ta 2.12185 6.34879 4.19992 -0.160765 -0.306315 -0.189165
Ta 2.09925 4.22625 6.27971 0.035143 -0.18736 -0.177238
Ta 0.02185 6.34185 6.33585 -0.259106 -0.451908 -0.098487
Ta 0.00789 4.15479 8.43241 -0.172733 -0.036282 -0.42258
Ta 2.06258 6.26646 8.37821 0.360506 0.29163 0.464662
Ta 2.07183 4.15654 10.44613 0.797909 0.375531 0.441052
Ta 8.37673 6.24695 10.43381 0.470094 0.350637 0.295661
Ta 4.1818 4.18462 4.22566 0.403165 -0.221054 0.018898
Ta 6.30127 6.32098 4.14566 -0.247024 -0.429369 0.397465
Ta 6.37389 4.25506 6.30113 -0.825718 0.356737 0.021921
Ta 4.14506 6.37217 6.33119 0.524226 -0.464019 -0.33404
Ta 4.2507 4.22408 8.38434 -0.07311 -0.474256 -0.097241
Ta 6.22906 6.29278 8.44824 0.607511 0.08044 -0.657565
Ta 6.31263 4.16515 10.53822 -0.023348 0.504182 -0.060435
Ta 4.25683 6.33642 10.47293 -1.207578 -0.04273 0.485548
48
Lattice = "8.39999961853 0.0 0.0 0.0 8.39999961853 0.0 0.0 0.0 12.6000003815" Properties=species:S:1:pos:R:3:forces:R:3 energy=-555.488929 stress="49282.159999999996 -336.55 1149.4 -336.55 47874.28 103.05 1149.4 103.05 42424.24"
Ta 0.03512 8.32736 0.04735 0.195543 1.082051 -0.703584
Ta 2.11581 2.13939 0.01641 0.073477 -0.45744 0.514192
Ta 2.07079 8.37632 2.08792 0.676688 0.377328 0.179098
Ta 8.35783 2.03849 2.1809 0.908543 1.149934 -0.889987
Ta 4.1959 8.34696 12.58734 -0.535175 0.46913 0.038878
Ta 6.26437 2.08135 0.07679 0.299386 0.583712 -0.602461
Ta 6.37037 0.01366 2.02106 -1.294312 -0.635008 0.710817
Ta 4.24611 2.17769 2.0911 -0.680948 -0.985152 -0.181143
Ta 0.07372 4.12817 12.59093 -0.441435 0.019262 0.248804
Ta 2.06857 6.35351 0.07211 0.019431 -0.602725 -1.010885
Ta 2.08855 4.27095 2.1785 0.282438 -0.433272 -0.555293
Ta 8.32144 6.22087 2.0537 0.410783 0.004178 0.562681
Ta 8.38888 8.37714 4.11943 0.308962 -0.309358 1.164082
Ta 2.14887 2.13908 4.15126 -0.277118 -0.404867 0.461854
Ta 2.17928 0.06945 6.33693 -0.935206 0.091758 0.125678
Ta 8.33101 2.14872 6.25637 0.561863 -0.262483 -0.416106
Ta 0.04108 0.06912 8.45283 -0.702254 -0.942391 -0.611289
Ta 2.03186 2.1051 8.47317 0.838748 0.336408 -1.260827
Ta 2.03098 0.04717 10.43185 0.916049 -0.870293 0.557485
Ta 0.04291 2.11193 10.50269 -1.3273 0.203866 0.673734
Ta 4.14453 4.27665 12.57389 -0.213966 -0.473756 0.070353
Ta 6.32205 6.30175 0.07023 -0.132763 -0.567711 -0.903952
Ta 6.21861 4.20945 2.09303 0.67931 0.016608 -0.165874
Ta 4.17333 6.29865 2.04198 0.497926 0.362234 0.845656
Ta 4.15271 8.31825 4.24383 0.677104 0.920677 -1.089099
Ta 6.3722 2.05801 4.12152 -0.64023 -0.357381 0.702795
Ta 6.27712 8.34356 6.37931 0.466257 0.752415 -0.704172
Ta 4.23102 2.13963 6.26783 -0.008734 -0.194259 0.29676
Ta 4.24458 8.3949 8.41406 -0.466657 0.049088 0.415361
Ta 6.27345 2.10269 8.33365 0.108823 0.031661 0.455912
Ta 6.25209 0.06243 10.5671 0.797058 -0.392281 -0.266682
Ta 4.2291 2.06722 10.51411 -0.167331 0.154586 0.125317
Ta 0.08155 4.27803 4.14262 -0.411464 -0.432115 0.501631
Ta 2.14772 6.356 4.24419 -0.424297 -0.329112 -0.005029
Ta 2.16225 4.21453 6.37281 -0.085025 -0.301886 -0.275683
Ta 8.3388 6.27522 6.25427 0.960965 0.503338 0.576671
Ta 8.34558 4.21909 8.35011 -0.19525 0.229496 0.190219
Ta 2.1414 6.25722 8.39529 -0.406155 0.495631 -0.072931
Ta 2.0676 4.16509 10.42654 0.162024 0.547732 0.361796
Ta 0.02779 6.27183 10.57064 -0.481675 -0.102235 -0.668364
Ta 4.27167 4.12358 4.18383 -0.624257 0.830488 0.131313
Ta 6.32831 6.30033 4.23746 -0.368349 0.352357 -1.043225
Ta 6.26272 4.22118 6.22845 0.153851 -0.400134 0.035347
Ta 4.22203 6.31398 6.22074 -0.268132 -0.584423 0.698344
Ta 4.25894 4.24103 8.47645 -0.353687 -0.638133 -0.793996
Ta 6.25491 6.2908 8.36135 0.799557 0.331093 0.79638
Ta 6.21723 4.19649 10.48535 1.309309 -0.431997 0.676066
Ta 4.26927 6.21862 10.51505 -0.662374 1.213381 0.103354
48
Lattice = "8.39999961853 0.0 0.0 0.0 8.39999961853 0.0 0.0 0.0 12.6000003815" Properties=species:S:1:pos:R:3:forces:R:3 energy=-556.027926 stress="43564.39 -49.54 -99.3 -49.54 45432.35 275.06 -99.3 275.06 40185.14"
Ta 8.34497 8.34551 12.5956 0.712799 0.267536 -0.153036
Ta 2.0558 2.04577 0.01276 0.261385 -0.290707 -0.127804
Ta 2.06838 8.37737 2.16659 0.672547 0.395646 -1.312629
Ta 0.00359 2.05074 2.15226 -0.320824 0.421623 -0.432403
Ta 4.26826 8.33822 0.02108 -0.755392 0.804853 0.059577
Ta 6.33489 2.131 12.53088 -0.426566 -0.592698 0.445778
Ta 6.25404 0.03209 2.05073 0.258429 0.220942 0.825671
Ta 4.16384 2.13978 2.12517 0.060709 -0.255028 -0.249772
Ta 8.36731 4.13909 0.0525 0.331667 0.645722 -0.10797
Ta 2.15375 6.29902 0.04207 -0.223718 0.33025 -0.423847
Ta 2.11926 4.2113 2.04 0.077389 -0.274763 0.060731
Ta 0.06324 6.29457 2.13106 -0.639548 -0.256039 -0.611666
Ta 0.0522 8.3415 4.1171 -0.688958 0.522915 0.942873
Ta 2.07655 2.17403 4.20011 -0.235656 -0.209697 0.072817
Ta 2.1497 8.34384 6.3073 -0.390747 0.045154 -0.212304
Ta 0.02961 2.09814 6.34863 -0.334421 -0.350008 -0.633984
Ta 0.07703 0.06114 8.42699 -0.48162 -0.529725 -0.105918
Ta 2.1146 2.08725 8.35955 0.000134 0.091763 0.144876
Ta 2.17879 0.01668 10.42251 -0.327921 -0.945931 0.74699
Ta 0.01535 2.14423 10.49771 0.421563 -0.107154 0.042196
Ta 4.24355 4.14389 12.57727 -0.490707 -0.151469 0.150492
Ta 6.30703 6.31257 0.03364 0.317513 -0.514173 0.21469
Ta 6.21957 4.24141 2.11393 0.747501 -0.932063 -0.27685
Ta 4.27447 6.25375 2.16537 -0.54996 0.359185 -0.634042
Ta 4.13684 8.3759 4.1221 0.976955 0.422783 0.46928
Ta 6.31913 2.1596 4.19723 -0.042125 -0.448326 0.0636
Ta 6.32938 0.03364 6.23358 0.112289 -0.022674 -0.410219
Ta 4.15414 2.02652 6.21831 0.551165 0.522365 0.208895
Ta 4.28152 8.39237 8.35103 -0.247267 -0.367146 -0.056108
Ta 6.31596 2.06768 8.44393 -0.115638 0.184021 -0.398675
Ta 6.3285 8.32779 10.51057 -0.165051 0.47747 -0.199364
Ta 4.12563 2.0398 10.42566 0.443476 0.125337 0.61432
Ta 8.38026 4.1908 4.13874 0.589643 0.264679 0.088241
Ta 2.17116 6.35301 4.11791 -0.570772 -1.315435 0.985555
Ta 2.03626 4.1604 6.34457 0.154161 0.572819 -0.628519
Ta 8.38985 6.30508 6.28594 0.326379 0.413925 -0.417146
Ta 8.36103 4.20342 8.38265 -0.217143 0.101356 0.728482
Ta 2.08955 6.26468 8.3173 0.243414 0.178383 0.814981
Ta 2.15221 4.23276 10.51632 -0.473082 0.143977 0.127608
Ta 8.36864 6.28423 10.50391 0.518348 -0.281377 0.03593
Ta 4.17037 4.21177 4.21967 -0.156993 -0.293509 0.422478
Ta 6.32577 6.23846 4.15284 0.005152 0.74102 0.318444
Ta 6.34611 4.25945 6.31433 -0.335588 -0.895129 0.197851
Ta 4.21525 6.23105 6.29066 0.022941 0.346622 -0.028249
Ta 4.1532 4.14295 8.36799 0.730355 0.232327 -0.123611
Ta 6.32703 6.37247 8.32622 -0.158654 -0.470012 0.487803
Ta 6.2491 4.16576 10.55905 0.217972 0.346985 -0.975743
Ta 4.26539 6.24873 10.54677 -0.405539 0.323408 -0.750301
48
Lattice = "8.39999961853 0.0 0.0 0.0 8.39999961853 0.0 0.0 0.0 12.6000003815" Properties=species:S:1:pos:R:3:forces:R:3 energy=-555.968399 stress="43047.68 454.90999999999997 -179.26 454.90999999999997 45952.240000000005 326.2 -179.26 326.2 41269.62"
Ta 8.33107 8.3509 0.0015 0.920711 0.047635 0.466085
Ta 2.15215 2.06155 0.00638 0.013766 0.114377 0.114976
Ta 2.17243 8.36545 2.15847 -0.432619 0.744561 -0.543999
Ta 0.00213 2.13268 2.0346 0.046002 -1.061264 0.961179
Ta 4.23222 0.05817 12.55891 -0.409962 -0.778639 -0.063284
Ta 6.26764 2.04607 0.0766 -0.214809 0.598564 -0.689581
Ta 6.24022 8.35975 2.09956 0.446009 0.343529 0.506397
Ta 4.25858 2.10916 2.17653 -0.950565 0.012664 -0.279387
Ta 8.36413 4.13793 0.03804 0.227157 0.360461 -0.615113
Ta 2.07699 6.23218 0.02357 -0.035908 0.836465 0.1878
Ta 2.04438 4.13335 2.10915 0.215365 0.362086 -0.128602
Ta 8.34053 6.35158 2.10339 0.192164 -0.413234 -0.37135
Ta 8.39644 8.33273 4.21315 -0.029012 0.821143 -0.309048
Ta 2.05049 2.18199 4.27857 -0.15645 -0.41091 -0.813722
Ta 2.10797 0.00795 6.24152 -0.317156 -0.701413 0.424479
Ta 0.00876 2.1029 6.29925 -0.221688 -0.231517 -0.287747
Ta 0.00111 8.39169 8.41011 0.358727 -0.010756 -0.601951
Ta 2.07824 2.14165 8.32985 0.262314 -0.445469 0.887731
Ta 2.04556 0.08072 10.52474 0.5264 -0.285219 -0.083721
Ta 8.37798 2.01756 10.54116 -0.140639 1.218338 -0.186234
Ta 4.12695 4.2567 0.0353 0.753601 -0.317693 0.037295
Ta 6.32498 6.30315 0.03712 -0.388071 -0.337876 -0.313802
Ta 6.30962 4.14127 2.13365 -0.135269 0.601454 0.056099
Ta 4.23315 6.34774 2.12982 -0.212883 -0.527314 -0.160335
Ta 4.19249 0.03152 4.23264 -0.076723 -0.943434 0.376392
Ta 6.23832 2.03393 4.19631 1.15411 0.515942 0.335054
Ta 6.34797 8.36641 6.29619 -0.34515 0.166198 -0.034551
Ta 4.17707 2.07642 6.27401 0.591806 0.420296 0.519899
Ta 4.21362 8.37068 8.38105 -0.080896 0.523146 -0.053202
Ta 6.36717 2.12038 8.33147 -0.401482 -0.340538 0.569328
Ta 6.37677 8.37217 10.48208 -0.574779 0.057651 -0.218756
Ta 4.263 2.08575 10.46917 0.085217 0.16737 -0.392696
Ta 0.00308 4.25945 4.25831 -0.216132 -0.940307 -0.693366
Ta 2.02019 6.29183 4.12359 0.782573 -0.22301 0.653063
Ta 2.13428 4.1517 6.3785 0.043308 1.139429 -0.121789
Ta 8.35004 6.21881 6.28464 1.158421 0.740718 0.664429
Ta 8.39923 4.25788 8.41667 0.108854 -0.46318 0.567778
Ta 2.14057 6.3406 8.46909 -0.263525 0.035096 -0.867844
Ta 2.1474 4.23778 10.49162 -0.289223 -1.035858 0.015625
Ta 0.0553 6.25623 10.45097 -0.282479 0.0763 0.811523
Ta 4.15104 4.23317 4.16596 0.281648 0.167552 0.379349
Ta 6.33045 6.25832 4.24115 -0.699707 0.07144 -0.17646
Ta 6.37853 4.15779 6.33602 -1.073636 -0.112077 -0.599552
Ta 4.1996 6.23651 6.33229 -0.262227 0.289885 -0.585827
Ta 4.28008 4.27309 8.43274 -0.041823 -0.686192 -0.088247
Ta 6.33862 6.31947 8.39033 -0.051946 -0.054734 0.085119
Ta 6.30961 4.25884 10.56206 0.075121 -0.542769 0.057588
Ta 4.20876 6.32794 10.48641 0.061486 0.431101 0.602978
48
Lattice = "8.39999961853 0.0 0.0 0.0 8.39999961853 0.0 0.0 0.0 12.6000003815" Properties=species:S:1:pos:R:3:forces:R:3 energy=-556.047132 stress="42983.7 837.4200000000001 145.2 837.4200000000001 43867.59 -1054.67 145.2 -1054.67 42053.840000000004"
Ta 8.35391 0.02768 12.53195 0.2996 0.097159 -0.189691
Ta 2.09406 2.10567 12.58345 -0.566566 -0.276803 -0.258138
Ta 2.0736 8.3527 2.13624 0.431138 0.069631 -0.176146
Ta 0.07104 2.02659 2.16207 -0.798628 0.179308 -0.911212
Ta 4.24337 0.07189 0.06066 -0.667104 -1.01187 -0.253714
Ta 6.24014 2.08636 12.54857 0.783637 0.195082 0.154676
Ta 6.33344 8.39148 2.02558 -0.303788 0.247493 1.015414
Ta 4.16535 2.06646 2.04504 0.073468 0.186828 0.468777
Ta 8.32677 4.23996 0.02711 0.81379 -0.478646 0.053713
Ta 2.08781 6.37504 12.59133 0.032354 -0.135994 0.303608
Ta 2.06443 4.14688 2.08857 -0.166601 0.775039 -0.532869
Ta 8.38638 6.37661 2.05779 -0.182172 -0.557039 0.479008
Ta 8.37411 8.39962 4.27195 0.241148 -0.01589 -0.246337
Ta 2.10985 2.13127 4.13256 0.516219 -0.39379 1.293154
Ta 2.14384 0.00652 6.34882 0.125171 0.286979 -0.653648
Ta 8.34346 2.03521 6.31512 0.018758 0.590464 0.348758
Ta 0.03525 8.32946 8.41429 -0.219143 0.55592 0.013803
Ta 2.12988 2.0852 8.36064 -0.099944 0.308003 0.252642
Ta 2.08083 8.32403 10.45611 0.15963 0.438777 0.611576
Ta 0.02857 2.10046 10.46488 0.00465 0.06223 -0.163579
Ta 4.12633 4.25698 12.56375 -0.253803 -0.345212 0.164038
Ta 6.24339 6.25677 0.07703 0.214297 0.405605 -0.193076
Ta 6.23523 4.15385 2.04007 0.673655 -0.032667 0.435699
Ta 4.23419 6.22194 2.15425 -0.259175 0.88278 -0.155619
Ta 4.19632 0.02098 4.26019 0.256837 0.15204 -0.517119
Ta 6.2787 2.16315 4.12282 -0.232405 -0.499866 0.253482
Ta 6.34721 8.31974 6.30085 -0.979334 0.910385 0.303536
Ta 4.28154 2.17035 6.32716 -0.15794 -0.615192 -0.1244
Ta 4.18199 8.39045 8.46612 0.325504 0.011668 -0.623247
Ta 6.26218 2.04661 8.48258 0.1676 0.725305 -0.25923
Ta 6.23956 8.33727 10.47655 0.418626 0.454527 0.207051
Ta 4.15476 2.10491 10.56002 -0.313925 0.116788 -0.527027
Ta 0.01924 4.13985 4.22933 -0.14445 0.528571 -0.009114
Ta 2.08713 6.26332 4.12939 -0.556542 0.338386 0.377019
Ta 2.15091 4.23252 6.31161 -0.453388 -0.485864 -0.240866
Ta 0.01574 6.34253 6.34105 0.560159 -0.626169 -0.553544
Ta 0.06165 4.27339 8.34091 -0.693509 -0.695001 0.015426
Ta 2.17693 6.29896 8.40088 -0.096806 0.060357 0.058203
Ta 2.04233 4.27207 10.49743 -0.170105 0.047304 0.328134
Ta 8.326 6.32148 10.47975 0.051179 -0.370901 0.321938
Ta 4.17478 4.27838 4.20752 -0.040763 -0.935827 -0.576582
Ta 6.33594 6.28787 4.27554 0.307038 0.027247 -1.208419
Ta 6.22034 4.2468 6.22637 0.65603 -0.422269 1.121308
Ta 4.16145 6.31917 6.2391 0.094184 0.321459 0.407157
Ta 4.14417 4.25682 8.46183 0.755121 -0.328996 0.17207
Ta 6.30692 6.29958 8.38648 -0.576112 -0.600141 0.013593
Ta 6.30183 4.19292 10.57602 0.207371 0.051704 -0.883456
Ta 4.25713 6.3237 10.54986 -0.254962 -0.198902 0.083246
48
Lattice = "8.39999961853 0.0 0.0 0.0 8.39999961853 0.0 0.0 0.0 12.6000003815" Properties=species:S:1:pos:R:3:forces:R:3 energy=-555.747848 stress="44613.38 397.28000000000003 -242.23 397.28000000000003 46401.21 -102.86 -242.23 -102.86 43613.280000000006"
Ta 0.02479 8.34418 0.01275 -0.16642 0.336623 -0.17578
Ta 2.12361 2.14989 0.01237 -0.405458 -0.253401 -0.541818
Ta 2.15668 0.05545 2.03048 -1.000877 -0.537193 0.264476
Ta 8.38488 2.15096 2.04122 -0.226412 -0.742284 -0.216619
Ta 4.26822 0.07709 0.05369 -1.051454 -0.974093 -0.658846
Ta 6.22169 2.03316 12.57305 1.255557 0.920651 0.507841
Ta 6.25622 8.38573 2.18037 0.795872 0.410847 -0.509558
Ta 4.16678 2.07023 2.1321 0.423587 0.619136 0.258117
Ta 0.05908 4.28115 12.57632 -0.514548 -0.229495 0.223581
Ta 2.15681 6.25911 12.52611 -0.187265 0.793507 0.590029
Ta 2.10607 4.20234 2.1649 -0.204517 0.52787 -0.182255
Ta 8.33964 6.36799 2.06365 0.524674 -0.464522 0.434211
Ta 8.32432 8.32625 4.27611 0.592658 0.021054 -0.297495
Ta 2.02168 2.04529 4.16312 0.026264 -0.221166 0.743869
Ta 2.16588 0.04144 6.35945 -0.460731 -0.235445 -0.58949
Ta 0.01204 2.05369 6.35048 0.259091 0.326814 -0.495643
Ta 0.01039 0.00368 8.3336 -0.673018 -0.236784 0.607724
Ta 2.0362 2.11502 8.41459 0.695682 0.392328 0.347056
Ta 2.06078 8.33946 10.46227 0.422497 0.624614 0.395156
Ta 8.39011 2.13863 10.50323 0.037882 -0.407402 0.601189
Ta 4.20505 4.24743 0.06234 -0.328867 -0.887587 -0.011584
Ta 6.2258 6.25659 0.00484 0.425855 0.635452 0.199651
Ta 6.25834 4.14378 2.03463 0.154989 0.155997 0.516394
Ta 4.15865 6.35101 2.06568 0.13635 -0.562846 0.542472
Ta 4.24566 0.03553 4.16912 -0.27687 0.238692 0.561637
Ta 6.36116 2.13477 4.23864 -0.0672 0.263837 -0.212871
Ta 6.28832 0.03663 6.33587 -0.054626 -0.825117 0.073016
Ta 4.26921 2.03519 6.33887 -0.525339 0.940356 -0.102505
Ta 4.20405 0.04164 8.423 0.312009 0.161766 0.440029
Ta 6.3561 2.16604 8.38015 -0.556637 -0.443675 0.656518
Ta 6.22231 0.06354 10.57462 0.749122 -0.629719 -0.896467
Ta 4.23446 2.05368 10.5626 -0.759888 0.841158 -0.975855
Ta 0.00046 4.14735 4.18932 0.123745 1.012572 -0.167229
Ta 2.18129 6.36027 4.19805 -0.666359 0.064525 -0.022031
Ta 2.07916 4.25676 6.35081 0.158957 -0.818787 -0.400517
Ta 8.3474 6.21802 6.35914 0.325132 0.928801 -0.633002
Ta 8.32754 4.20214 8.39946 0.837886 0.30854 0.750161
Ta 2.08917 6.30707 8.37548 -0.142599 -0.403183 0.505543
Ta 2.09792 4.22452 10.55581 0.108204 -0.342607 -0.998745
Ta 8.34488 6.35512 10.47699 0.002323 -0.149774 0.008416
Ta 4.12138 4.12799 4.23746 0.523048 0.17672 0.272443
Ta 6.23634 6.28138 4.16996 -0.092966 -0.776434 0.306905
Ta 6.36952 4.2719 6.36773 -1.008562 -0.323291 -1.151597
Ta 4.13873 6.36014 6.35862 0.771311 -0.156347 -0.591177
Ta 4.2281 4.26918 8.35417 -0.447945 -1.108738 0.194339
Ta 6.2637 6.27914 8.44271 -0.036946 0.834555 0.001538
Ta 6.25795 4.26254 10.56883 0.196157 -0.749479 0.01619
Ta 4.19511 6.21799 10.50605 -0.003346 0.942955 -0.187417
