54
Lattice = "9.96000003815 0.0 0.0 0.0 9.96000003815 0.0 0.0 0.0 9.96000003815" Properties=species:S:1:pos:R:3:forces:R:3 energy=-631.019667 stress="48457.11 -1136.2 -2351.6499999999996 -1136.2 49582.49 -508.49999999999994 -2351.6499999999996 -508.49999999999994 49591.75"
Ta 0.03088 9.94467 0.03567 -0.612376 -0.402684 -1.345349
Ta 1.76644 1.66184 1.44089 -1.2057 1.054325 2.428563
Ta 3.15336 9.91786 0.09806 1.832799 -0.872674 -1.263279
Ta 9.90797 3.4076 9.86152 0.297218 -1.020932 0.904226
Ta 3.35029 3.41556 0.08196 -0.474781 -0.303924 -0.630438
Ta 9.87659 0.24016 3.2897 1.017582 -2.732856 0.243285
Ta 3.19754 9.8139 3.31195 1.086563 0.951134 0.062863
Ta 0.08403 3.3137 3.13958 -0.885405 -1.158694 1.624432
Ta 3.39974 3.48704 3.44694 -0.379616 -1.521174 -1.132181
Ta 5.07318 1.57764 1.57293 -1.924629 1.561628 0.647121
Ta 6.63264 0.09181 0.15115 -0.072574 -1.323405 -2.650495
Ta 8.39478 1.48796 1.58174 -0.843688 3.259658 -0.417314
Ta 6.7258 3.35837 9.78756 -1.038348 -0.281612 2.282876
Ta 6.62212 0.16031 3.16166 -0.465928 -0.905667 2.675349
Ta 6.62042 3.31664 3.31262 0.200967 -0.07823 0.521868
Ta 1.54439 4.91527 1.83097 0.997719 1.072497 -2.393149
Ta 9.86899 6.74766 0.03204 0.130914 -0.582942 0.03917
Ta 1.53276 8.30182 1.78092 0.418129 0.388694 -1.393579
Ta 3.20199 6.66207 0.08252 0.203286 -0.527057 -0.549649
Ta 9.8179 6.83547 3.1511 0.116081 -1.993238 2.124523
Ta 3.2641 6.51799 3.20131 0.251868 1.623578 1.121764
Ta 5.01293 5.01666 1.65694 -0.60696 -1.008076 -0.05693
Ta 8.3041 4.93065 1.67994 -0.477682 0.619238 -0.426472
Ta 4.92858 8.36431 1.64619 -0.219331 -0.900422 0.085838
Ta 6.45171 6.49288 9.86487 2.179344 0.818455 1.969854
Ta 8.17019 8.46521 1.78178 0.066493 -1.369324 -1.060782
Ta 6.49459 6.44867 3.32152 1.495401 1.861587 -0.033194
Ta 1.68005 1.47471 4.81754 0.149108 1.822933 1.469216
Ta 9.84583 0.19765 6.76751 0.42718 -1.609424 -1.224098
Ta 1.69522 1.63512 8.38002 0.084742 0.557896 -0.456487
Ta 3.48664 0.05215 6.57542 -1.934503 -0.752789 1.48785
Ta 0.12798 3.32081 6.73112 -1.229494 -0.484439 -1.358874
Ta 3.10095 3.36454 6.48278 1.921122 -0.938531 0.820666
Ta 4.85343 1.62817 5.0425 1.234126 0.870681 -0.99265
Ta 8.36737 1.67732 5.00314 -0.975535 1.13482 0.108656
Ta 4.90899 1.80105 8.38128 -0.039766 -0.878359 -0.651697
Ta 6.62609 9.89334 6.61756 -0.816596 1.409513 -0.309355
Ta 8.0983 1.79178 8.16645 1.859748 -1.248881 0.899404
Ta 6.55346 3.46095 6.83157 0.395776 -0.669972 -2.721461
Ta 1.66233 5.09512 5.00854 -0.671291 0.362604 -0.539021
Ta 1.62699 8.17655 5.00487 -0.188259 1.341073 -0.158559
Ta 1.55751 4.87741 8.21882 1.446618 1.907859 1.214679
Ta 0.00182 6.68339 6.71874 -0.827626 -0.053836 -0.695514
Ta 1.55288 8.27814 8.30093 0.682118 0.586247 -0.235491
Ta 3.53869 6.81025 6.55411 -2.996765 -1.824506 1.97593
Ta 4.93422 5.11727 5.01126 0.811714 -1.188027 0.493333
Ta 8.47308 4.97388 4.90308 -0.996458 0.210843 0.346855
Ta 4.85618 8.3031 5.00957 1.943666 0.394624 -1.649648
Ta 8.16403 8.34109 4.92427 0.91047 0.263158 0.079445
Ta 4.93491 4.96157 8.29899 -1.172036 0.51008 -0.179543
Ta 8.30629 4.96656 8.34881 0.344097 1.095134 -0.874028
Ta 5.1789 8.11229 8.35024 -3.233148 3.075485 0.666856
Ta 6.73281 6.78612 6.82621 -0.949494 -3.102187 -3.614177
Ta 8.11993 8.34071 8.16079 2.733141 0.980114 2.718789
54
Lattice = "9.96000003815 0.0 0.0 0.0 9.96000003815 0.0 0.0 0.0 9.96000003815" Properties=species:S:1:pos:R:3:forces:R:3 energy=-631.719595 stress="44221.5 1652.1999999999998 85.95 1652.1999999999998 46661.8 2659.1800000000003 85.95 2659.1800000000003 45398.76"
Ta 9.88176 9.87945 0.1862 0.078511 0.774502 -3.074145
Ta 1.72277 1.64067 1.45897 -0.388557 1.148359 1.788807
Ta 3.29248 9.91934 0.1304 0.320177 -0.192327 -1.925714
Ta 9.9322 3.28625 9.92067 0.151826 0.305556 0.342341
Ta 3.39626 3.47237 0.027 -1.172443 -1.196633 -0.381029
Ta 9.82641 0.17857 3.34651 1.471988 -1.800854 -0.398222
Ta 3.18421 9.75374 3.20228 1.172612 2.338131 1.461522
Ta 0.0643 3.32106 3.21026 -0.524353 -0.677178 0.569751
Ta 3.36095 3.52794 3.46046 0.265224 -1.853189 -1.194265
Ta 5.05551 1.59902 1.56265 -1.305786 1.821863 0.915691
Ta 6.55573 0.10614 0.0715 0.473027 -1.331628 -1.56567
Ta 8.32355 1.55377 1.58678 -0.34357 2.420135 0.231492
Ta 6.79062 3.46987 9.80057 -2.578904 -2.079435 2.539246
Ta 6.65472 0.19462 3.23542 -0.854033 -1.11806 1.182547
Ta 6.68241 3.29629 3.38474 -0.467825 0.142616 -0.130294
Ta 1.6702 4.89369 1.79281 -0.731988 0.661803 -1.877031
Ta 9.93781 6.83545 0.11497 -0.079074 -1.393283 -0.700726
Ta 1.55467 8.44593 1.70683 -0.318713 -2.059723 0.143176
Ta 3.12799 6.70462 0.09695 0.649317 -0.982046 -0.987759
Ta 9.87365 6.726 3.29089 0.358887 -0.808113 0.020022
Ta 3.21735 6.54561 3.18977 1.043621 1.493821 1.154247
Ta 5.01268 5.00658 1.62783 -0.475689 -0.239773 0.337642
Ta 8.30126 4.99697 1.66463 -0.164073 0.238569 0.134521
Ta 4.9138 8.33572 1.62276 0.337469 -0.531079 0.293633
Ta 6.4397 6.55776 9.88777 1.902994 0.646598 1.055407
Ta 8.2046 8.46737 1.69724 -0.705785 -1.624672 0.59768
Ta 6.47327 6.53333 3.348 1.087057 0.860747 -0.071448
Ta 1.63781 1.56651 4.86513 0.303333 0.759117 0.988318
Ta 9.7163 0.09312 6.79336 1.972395 -0.68173 -1.740951
Ta 1.61582 1.57397 8.30893 0.534301 0.691166 0.33332
Ta 3.49451 0.05066 6.70224 -2.318362 -0.853012 0.193493
Ta 9.94977 3.38199 6.78886 -0.299979 -1.645948 -1.888923
Ta 3.18672 3.36165 6.43952 0.586136 -0.962061 1.644513
Ta 4.89114 1.58583 5.10545 0.895504 0.96948 -1.159718
Ta 8.35054 1.66148 5.06446 -0.650427 1.385707 -0.230145
Ta 4.86816 1.73116 8.31179 0.899776 0.423663 0.126451
Ta 6.68153 9.92387 6.63426 -0.794656 0.815228 0.039522
Ta 8.19213 1.74268 8.29407 0.709237 -0.766675 0.419655
Ta 6.68538 3.41569 6.73237 -1.039762 -0.942693 -1.573563
Ta 1.62301 5.03369 4.94072 -0.479437 0.708177 0.454442
Ta 1.67811 8.17661 4.94845 -0.43286 1.033108 0.702773
Ta 1.50449 4.90497 8.12727 2.157996 1.39217 2.121635
Ta 9.95522 6.68722 6.7223 -1.207088 -1.014513 -2.023602
Ta 1.45061 8.21644 8.20658 1.867458 1.404377 0.979038
Ta 3.56471 6.75841 6.62207 -3.094311 -0.309955 1.003355
Ta 4.86687 5.12412 5.14144 1.869234 -0.95749 -1.296573
Ta 8.38876 4.88961 4.89775 -0.647449 1.012711 0.567511
Ta 4.92136 8.45113 5.01625 0.770451 -1.088974 -1.090266
Ta 8.20783 8.3489 4.81321 0.21963 0.005286 1.165586
Ta 4.94875 4.9618 8.28572 -0.426832 0.599091 -0.345599
Ta 8.20464 4.88251 8.34235 2.170673 2.829715 -0.757157
Ta 5.07191 8.2117 8.40225 -1.362796 1.673933 -0.46401
Ta 6.76974 6.82114 6.74241 -1.906068 -2.251947 -1.927455
Ta 8.24859 8.29304 8.12672 0.501988 0.80736 3.296928
54
Lattice = "9.96000003815 0.0 0.0 0.0 9.96000003815 0.0 0.0 0.0 9.96000003815" Properties=species:S:1:pos:R:3:forces:R:3 energy=-631.386255 stress="48618.67 -1616.79 -530.36 -1616.79 47533.82 1218.01 -530.36 1218.01 48883.18"
Ta 9.92016 0.01438 0.03854 0.556788 -0.67783 -1.5106
Ta 1.82311 1.70936 1.41659 -1.918774 0.138683 2.301326
Ta 3.28553 9.91893 0.14739 0.748737 -0.469771 -1.769605
Ta 9.87507 3.32337 9.83154 0.793708 -0.519091 0.991363
Ta 3.3031 3.46518 0.07875 0.443248 -0.426577 -0.905273
Ta 9.95947 0.08218 3.34696 0.739427 -0.726997 -0.766983
Ta 3.1684 9.75979 3.2356 1.642308 1.605642 1.000091
Ta 0.02998 3.22821 3.21978 0.370247 0.48123 0.316324
Ta 3.32428 3.45789 3.46471 0.337827 -1.517721 -1.355537
Ta 5.13331 1.59317 1.61007 -2.537997 2.199599 0.12697
Ta 6.66564 0.10058 0.15795 -0.170102 -1.253786 -3.131771
Ta 8.39979 1.53376 1.55197 -0.736293 2.568367 0.959357
Ta 6.699 3.46643 9.78218 -1.357883 -2.290461 2.801884
Ta 6.55739 0.19963 3.22195 1.010984 -1.898276 1.569223
Ta 6.6614 3.19875 3.40136 0.28987 0.883996 -0.281886
Ta 1.65474 4.95752 1.79601 -0.834231 0.053286 -1.593869
Ta 9.95302 6.80511 0.03196 -0.079769 -1.229448 0.075092
Ta 1.56181 8.37445 1.75774 0.103273 -1.036598 -1.620168
Ta 3.25788 6.58258 9.89943 -0.15681 0.002856 0.109545
Ta 9.81575 6.84635 3.22839 0.491934 -1.902197 0.607502
Ta 3.26659 6.5421 3.20775 1.051845 1.685557 0.716388
Ta 4.961 4.94444 1.67842 0.154733 0.132572 -0.385023
Ta 8.39914 5.00135 1.64081 -0.85754 -0.046821 0.044073
Ta 4.981 8.40495 1.52317 -0.154277 -1.618489 1.137429
Ta 6.59095 6.57229 9.81082 0.516853 -0.031072 2.168022
Ta 8.23079 8.50453 1.71947 -0.19104 -1.640479 -0.218034
Ta 6.5189 6.4527 3.26946 1.051143 1.341567 0.195318
Ta 1.69996 1.52396 4.92178 -0.286649 1.057284 0.327442
Ta 9.71449 0.20654 6.76983 2.454386 -2.330371 -0.861132
Ta 1.75395 1.54634 8.40434 -0.369274 0.99695 -0.846145
Ta 3.36184 9.91466 6.55661 -0.545145 -0.225476 0.969587
Ta 0.07017 3.38145 6.72746 -0.97093 -1.700112 -1.838196
Ta 3.188 3.32611 6.41893 0.788188 -0.658484 1.70621
Ta 4.88158 1.53321 4.98105 0.344727 0.704928 0.157548
Ta 8.47411 1.59131 4.94665 -1.939704 1.794052 0.479038
Ta 4.88901 1.78086 8.34967 0.243383 -0.808705 -0.52527
Ta 6.73425 9.77434 6.70175 -1.485362 1.795728 -1.262133
Ta 8.06248 1.71241 8.15301 1.263397 0.222212 1.789119
Ta 6.58956 3.39493 6.70849 -0.327807 -0.793748 -1.979357
Ta 1.72658 5.14855 4.93998 -1.319359 -0.168591 0.474034
Ta 1.56142 8.14402 4.97342 0.414502 1.370212 0.309023
Ta 1.49024 4.85879 8.1549 2.112914 2.183214 1.555991
Ta 9.89805 6.74264 6.68864 -0.638427 -1.761151 -1.247128
Ta 1.51881 8.19293 8.20586 1.126883 1.771936 0.731665
Ta 3.53422 6.78757 6.63995 -2.202411 -1.241629 0.531987
Ta 4.91797 5.05055 5.07395 0.97697 -0.452695 -0.680973
Ta 8.37523 4.90856 4.86905 -0.569914 0.544987 0.445982
Ta 4.96025 8.30839 4.98936 0.640131 -0.024991 -0.918091
Ta 8.25393 8.41481 4.85824 -0.321351 -0.771339 0.862505
Ta 4.98338 4.92238 8.25755 -1.037048 0.701643 -0.025492
Ta 8.20041 4.82836 8.34047 1.93369 2.92161 -1.499861
Ta 5.14911 8.22565 8.35035 -2.453675 1.564843 0.655552
Ta 6.67583 6.74955 6.82036 -0.298729 -2.031929 -2.821342
Ta 8.24568 8.22146 8.24391 1.158405 1.531882 1.928281
54
Lattice = "9.96000003815 0.0 0.0 0.0 9.96000003815 0.0 0.0 0.0 9.96000003815" Properties=species:S:1:pos:R:3:forces:R:3 energy=-632.575826 stress="37007.6 -3335.61 -654.2900000000001 -3335.61 41350.14000000001 729.9499999999999 -654.2900000000001 729.9499999999999 42032.22"
Ta 9.89658 0.05915 0.05605 1.036339 -0.553602 -1.509413
Ta 1.84029 1.75247 1.5692 -1.142381 -0.38124 0.773395
Ta 3.2103 9.87745 0.03021 0.881726 0.55755 -0.326543
Ta 0.02515 3.41269 9.87251 -0.122739 -0.795043 1.221499
Ta 3.43008 3.44154 0.03351 -1.7763 -1.011632 -0.445853
Ta 9.87697 0.19214 3.32206 1.584106 -2.293162 0.196284
Ta 3.22174 9.87812 3.28991 0.769286 0.831055 0.301207
Ta 0.1052 3.26647 3.18262 -0.190214 0.336725 0.865636
Ta 3.41777 3.41426 3.37277 -0.455402 -0.720753 -0.151548
Ta 5.17196 1.58588 1.62527 -2.939961 2.107641 0.562846
Ta 6.60208 0.22971 0.08742 0.803627 -2.595707 -2.375381
Ta 8.43127 1.4925 1.61697 -1.259463 3.750632 -0.106891
Ta 6.76348 3.3785 9.80186 -2.03401 -1.195377 2.585494
Ta 6.65909 0.1949 3.2601 -0.56741 -1.409525 1.503945
Ta 6.6316 3.23626 3.37906 0.319 0.938546 -0.113448
Ta 1.62284 5.00729 1.75386 -0.237159 -0.599216 -1.433498
Ta 9.93301 6.82006 0.07168 -0.603293 -1.11764 -0.086884
Ta 1.52042 8.42173 1.76252 0.366653 -0.814026 -0.80013
Ta 3.21357 6.59587 0.05473 -0.149533 0.25932 -0.610436
Ta 9.80178 6.73879 3.20649 0.278464 -0.754372 0.931782
Ta 3.18872 6.5548 3.14659 1.331155 1.227953 1.549942
Ta 4.90812 4.89326 1.56359 1.415424 1.204801 1.175799
Ta 8.30391 4.92482 1.63948 -0.141538 0.852068 0.296628
Ta 4.96767 8.43868 1.50927 -0.390065 -1.085888 1.127117
Ta 6.58605 6.61068 9.88944 0.61683 -0.473365 1.726223
Ta 8.16049 8.53247 1.75295 0.195242 -1.799944 -0.538088
Ta 6.52605 6.5329 3.27653 0.530753 0.627982 -0.045421
Ta 1.62199 1.50417 4.93639 0.838566 1.316864 0.614038
Ta 9.80755 0.13028 6.79412 0.867567 -1.141378 -1.30953
Ta 1.7363 1.62901 8.31191 -0.210323 0.210696 0.384316
Ta 3.35607 9.88966 6.63602 -0.80484 0.044494 0.395101
Ta 0.10319 3.2834 6.73662 -1.43873 -0.584218 -1.316375
Ta 3.23105 3.25793 6.54382 0.621854 0.133901 0.243236
Ta 4.92957 1.63938 4.99734 0.279261 -0.276038 0.237899
Ta 8.42481 1.65711 4.95454 -1.326796 1.057458 1.098206
Ta 4.84069 1.75925 8.38234 0.745716 -0.829046 -0.859739
Ta 6.64597 9.80629 6.69075 -0.741154 2.128175 -0.430751
Ta 8.19543 1.78177 8.30388 1.200953 -1.19775 -0.25616
Ta 6.57343 3.34206 6.80779 0.135786 -0.186078 -2.215599
Ta 1.6324 5.02772 5.04564 -0.039204 0.36717 -0.650982
Ta 1.56954 8.11698 4.93801 0.230278 1.550094 0.24251
Ta 1.44091 4.90529 8.17235 2.716493 1.617542 1.20799
Ta 9.93346 6.67194 6.71914 -1.022256 -0.17536 -0.867865
Ta 1.47975 8.31024 8.36713 1.004335 0.238704 -0.734919
Ta 3.48998 6.76276 6.56515 -1.924801 -0.712464 1.159232
Ta 4.9581 5.06922 5.0693 0.337345 -0.924942 -0.538749
Ta 8.40596 4.88849 4.85949 -0.874232 0.467588 0.615094
Ta 4.91272 8.41158 4.96637 0.732014 -1.112804 -0.699182
Ta 8.15337 8.43609 4.86865 0.839591 -1.003948 0.68469
Ta 4.9461 4.9089 8.30806 -0.155864 1.182133 -0.492917
Ta 8.17416 4.94211 8.40779 2.376142 1.640431 -1.638172
Ta 5.14706 8.15632 8.46125 -2.44524 1.8416 -0.879395
Ta 6.73636 6.72505 6.79496 -1.106421 -1.283292 -2.272742
Ta 8.21344 8.32047 8.22695 1.044823 0.536684 2.006502
54
Lattice = "9.96000003815 0.0 0.0 0.0 9.96000003815 0.0 0.0 0.0 9.96000003815" Properties=species:S:1:pos:R:3:forces:R:3 energy=-630.450212 stress="54872.520000000004 561.84 254.42 561.84 57576.3 3236.46 254.42 3236.46 52454.13"
Ta 9.94993 0.02472 0.14274 0.055475 -0.868863 -2.639446
Ta 1.73941 1.62931 1.49216 0.133385 0.958345 1.334282
Ta 3.27456 9.84431 0.06714 0.152037 0.685105 -1.338688
Ta 9.89722 3.30899 9.8442 0.882932 -0.580173 1.896163
Ta 3.39949 3.43937 0.07444 -1.252525 -0.603574 -1.126923
Ta 9.95738 0.18394 3.26338 0.661235 -1.926241 0.911392
Ta 3.30019 9.78645 3.22208 0.028724 1.660063 1.023838
Ta 0.13719 3.26818 3.17619 -0.70546 0.166489 0.836621
Ta 3.35898 3.53996 3.45643 -0.084938 -1.979508 -0.962122
Ta 5.04991 1.63426 1.4814 -1.341163 1.468593 1.819665
Ta 6.63167 0.11405 0.21537 -0.12109 -1.761401 -4.075404
Ta 8.31494 1.42157 1.60574 0.368731 4.528905 0.569883
Ta 6.74419 3.49221 9.84811 -2.007412 -2.167313 2.65689
Ta 6.63412 0.20045 3.26587 -0.684628 -1.087473 1.050812
Ta 6.74149 3.29744 3.34049 -0.536207 0.257368 0.20051
Ta 1.65629 4.91473 1.70491 -0.099545 0.910351 -0.802777
Ta 9.8848 6.82698 0.05792 0.376337 -1.495085 -0.415922
Ta 1.52902 8.3382 1.76782 0.639344 -0.53398 -1.01794
Ta 3.2842 6.59888 0.05835 -0.561013 0.262988 -0.786249
Ta 9.8388 6.70884 3.26058 0.554427 -0.634265 0.300656
Ta 3.29697 6.67135 3.2332 0.752046 -0.215397 0.311965
Ta 4.97002 4.96577 1.62011 0.05044 0.104913 0.434502
Ta 8.33172 4.99905 1.67588 -0.034233 0.026594 -0.111203
Ta 4.97516 8.44565 1.55002 -0.020779 -1.935482 0.889879
Ta 6.57558 6.51621 9.81153 1.066759 1.429994 2.384917
Ta 8.25006 8.48199 1.74936 -0.452919 -1.834688 -0.031687
Ta 6.44899 6.4711 3.23262 1.703195 1.475113 0.740876
Ta 1.66863 1.57808 4.93069 0.431628 0.338513 0.161788
Ta 9.72144 0.20932 6.75785 1.958848 -2.154971 -0.993231
Ta 1.63635 1.60616 8.35046 0.463086 0.37157 -0.091186
Ta 3.48302 0.00215 6.71334 -1.509435 -0.172883 0.010894
Ta 9.93596 3.25148 6.70143 0.237451 -0.065117 -1.344746
Ta 3.08129 3.29628 6.51691 2.160928 -0.13483 0.507974
Ta 4.96743 1.5573 5.07437 0.055528 1.049799 -0.152912
Ta 8.45292 1.6707 5.00536 -1.761269 1.037855 -0.291955
Ta 4.94629 1.85995 8.30452 -0.162188 -1.40003 0.218906
Ta 6.73739 9.79788 6.73002 -1.360293 2.553733 -1.038778
Ta 8.13299 1.84164 8.23538 1.255041 -2.346864 1.564886
Ta 6.66656 3.37782 6.84701 -0.835313 0.379035 -3.422381
Ta 1.68024 5.12154 4.98734 -0.660796 0.080462 0.142574
Ta 1.60982 8.10644 4.87313 0.325313 1.774663 1.223699
Ta 1.43945 4.82885 8.10227 2.085236 1.993105 1.922899
Ta 9.9461 6.81388 6.73985 -0.837177 -1.923205 -1.883599
Ta 1.46223 8.29911 8.22847 1.981531 0.926889 0.882329
Ta 3.56097 6.69411 6.63008 -2.368401 -0.099926 0.349055
Ta 4.97662 5.05599 5.0457 0.641095 -0.663324 -0.062532
Ta 8.47313 4.93262 4.89931 -1.205654 0.412649 0.354766
Ta 4.99461 8.38381 5.00182 0.283353 -0.567275 -0.555014
Ta 8.15164 8.40758 4.84002 1.070067 -0.7384 0.47295
Ta 5.02489 5.02411 8.3462 -1.295414 -0.424201 -1.125591
Ta 8.29233 4.81641 8.42543 1.342299 3.650693 -2.347555
Ta 5.13768 8.20531 8.35183 -1.942023 1.3521 0.356008
Ta 6.7424 6.82181 6.74362 -1.121731 -2.790179 -1.913012
Ta 8.24574 8.2733 8.18525 1.245134 1.248761 2.999274
54
Lattice = "9.96000003815 0.0 0.0 0.0 9.96000003815 0.0 0.0 0.0 9.96000003815" Properties=species:S:1:pos:R:3:forces:R:3 energy=-631.669379 stress="43133.57 -1318.24 471.24 -1318.24 48697.43 3329.94 471.24 3329.94 47363.12"
Ta 9.94799 9.88693 0.10122 -0.263284 1.216688 -1.883794
Ta 1.86889 1.76555 1.56581 -1.932894 -0.197466 0.799563
Ta 3.18914 9.88171 0.13041 0.610905 0.517831 -1.648338
Ta 9.92665 3.38968 9.84955 0.317542 -1.257416 1.688263
Ta 3.43358 3.54499 0.1688 -1.726787 -2.050304 -2.386849
Ta 9.82474 0.16394 3.32778 2.216383 -1.538245 -0.264099
Ta 3.17727 9.89254 3.26737 1.70172 0.460024 0.157384
Ta 0.07445 3.24025 3.20793 -0.069552 0.434181 0.546568
Ta 3.36565 3.516 3.35675 0.112956 -1.917705 -0.223914
Ta 5.16123 1.6239 1.55508 -3.303498 2.564182 1.651578
Ta 6.55575 0.21191 0.17217 1.231731 -2.686607 -3.911866
Ta 8.29508 1.55441 1.6632 0.089146 2.52746 -0.701653
Ta 6.73309 3.48714 9.89848 -2.274779 -2.67868 1.66594
Ta 6.59035 0.09173 3.21496 -0.0633 -0.576713 2.012973
Ta 6.64791 3.2176 3.34745 0.160139 1.027979 0.160616
Ta 1.65171 4.94471 1.7425 -0.713082 0.706387 -1.212205
Ta 9.93323 6.79042 0.0161 -0.225077 -1.132914 -0.016869
Ta 1.4431 8.3808 1.76113 1.378961 -0.749711 -0.52572
Ta 3.21108 6.66508 0.00376 -0.00978 -0.476703 -0.29896
Ta 9.81714 6.70548 3.17335 0.208961 -0.701521 1.301811
Ta 3.21572 6.591 3.22023 1.033304 1.008256 0.532303
Ta 4.91106 4.93792 1.58572 1.678571 2.009249 1.603115
Ta 8.26464 4.94698 1.60854 0.497683 0.531052 0.869356
Ta 4.90809 8.44903 1.49243 0.088267 -1.613979 1.633781
Ta 6.59154 6.59584 9.95944 0.505361 0.227865 0.830287
Ta 8.21527 8.54264 1.72812 -0.429569 -2.313543 -0.559364
Ta 6.55385 6.57757 3.26324 0.271827 0.622681 0.181604
Ta 1.75661 1.52675 4.84155 -0.633945 1.321519 1.006441
Ta 9.87636 0.21376 6.70268 0.45418 -1.893615 -0.40218
Ta 1.6521 1.61415 8.35169 0.600238 0.373907 0.119151
Ta 3.44156 0.04311 6.6096 -1.495661 -0.599002 0.704379
Ta 0.09339 3.37032 6.65029 -1.099312 -1.412438 -0.819685
Ta 3.18042 3.28906 6.45515 0.992949 0.211285 1.220556
Ta 5.00918 1.65807 5.12559 0.127178 -0.0364 -1.088507
Ta 8.38565 1.61267 4.93819 -1.405672 1.604515 0.911956
Ta 4.81649 1.82535 8.27026 1.005288 -0.428096 0.38029
Ta 6.74177 9.88632 6.6854 -1.192978 0.733832 -0.379597
Ta 8.06265 1.81199 8.23079 2.096046 -1.128412 0.494263
Ta 6.62079 3.42161 6.7044 -0.241025 -0.422289 -1.432335
Ta 1.71584 5.10974 5.01063 -0.952074 0.094302 -0.330628
Ta 1.6423 8.21258 4.88283 -0.325763 0.887706 0.945961
Ta 1.49636 4.82702 8.22043 2.120092 2.257811 0.840294
Ta 9.95578 6.72188 6.72066 -0.190571 -0.973108 -1.045394
Ta 1.57396 8.29892 8.32339 0.49698 0.587894 -0.638339
Ta 3.53534 6.71052 6.61516 -2.080422 -0.439087 0.577691
Ta 4.91158 5.00762 4.99897 1.141976 -0.039622 -0.08708
Ta 8.42976 4.87775 4.88036 -0.952974 0.858021 0.171909
Ta 4.90384 8.41136 4.98652 0.894637 -0.884584 -0.741048
Ta 8.2864 8.42598 4.87128 -0.087899 -0.922239 0.910409
Ta 5.03024 4.97737 8.34689 -1.018587 0.572925 -0.691072
Ta 8.23151 4.84154 8.4374 1.578619 3.115272 -2.575512
Ta 5.1302 8.08126 8.35768 -1.750753 2.547363 0.298061
Ta 6.65325 6.73813 6.7005 0.162071 -1.670992 -1.976694
Ta 8.2436 8.19187 8.19738 0.665528 1.721207 1.625195
54
Lattice = "9.96000003815 0.0 0.0 0.0 9.96000003815 0.0 0.0 0.0 9.96000003815" Properties=species:S:1:pos:R:3:forces:R:3 energy=-632.431277 stress="39332.07 -484.03000000000003 -591.5 -484.03000000000003 42463.85 -935.67 -591.5 -935.67 44557.78"
Ta 0.01093 0.07201 0.09451 -0.133033 -0.624676 -1.390718
Ta 1.86279 1.76064 1.51659 -1.592195 -0.069139 1.205785
Ta 3.2078 9.79995 0.13153 0.540433 1.454104 -1.58264
Ta 9.85766 3.40762 9.89988 1.024661 -1.342485 0.791698
Ta 3.38902 3.43935 0.04627 -0.448466 -0.286011 -0.80136
Ta 9.90188 0.13348 3.29636 1.537302 -1.039386 0.836358
Ta 3.22408 9.86832 3.24936 1.3552 0.851114 0.539138
Ta 0.12559 3.29783 3.20677 -1.020326 -0.682337 1.223972
Ta 3.36531 3.39767 3.43601 0.009962 -0.529326 -1.103499
Ta 5.15746 1.68746 1.60975 -2.532105 1.453447 0.682011
Ta 6.67484 0.22558 0.19511 -0.045042 -2.082264 -2.946332
Ta 8.39432 1.57083 1.68829 -0.326523 2.974804 -0.552053
Ta 6.7901 3.4905 9.84778 -2.280421 -1.914956 1.902637
Ta 6.66098 0.16369 3.1821 -0.458515 -1.404543 2.285847
Ta 6.68975 3.33374 3.35351 -0.189956 -0.055081 0.175264
Ta 1.51952 4.8757 1.72333 1.250032 1.568243 -1.070974
Ta 9.93504 6.80931 0.00911 -0.545334 -1.102829 0.05256
Ta 1.53614 8.31731 1.75831 0.412055 0.075595 -1.050824
Ta 3.19933 6.67436 9.9199 -0.185239 -1.027413 0.207555
Ta 9.87719 6.84896 3.30936 0.023055 -2.415004 0.073182
Ta 3.27549 6.6063 3.18917 0.469425 0.419811 0.76263
Ta 5.00755 4.96297 1.63652 -0.168999 0.238458 0.154223
Ta 8.27314 4.95228 1.66284 0.330644 1.338439 0.511823
Ta 4.91774 8.42919 1.48115 0.474143 -1.326573 1.888404
Ta 6.55832 6.62377 9.94221 1.26809 -0.236095 1.051695
Ta 8.27021 8.49129 1.78853 -0.55743 -1.432265 -0.989698
Ta 6.39844 6.56795 3.35477 1.561076 0.83826 -0.364502
Ta 1.77582 1.5455 4.9351 -1.060253 0.494227 0.023332
Ta 9.87126 0.15154 6.74741 0.212135 -1.347122 -0.696834
Ta 1.74456 1.52234 8.31732 0.085858 1.095537 0.038296
Ta 3.45815 9.88882 6.55866 -1.684608 0.594275 1.383549
Ta 0.03304 3.29479 6.73355 -0.261879 -0.877624 -1.394156
Ta 3.18079 3.30298 6.42253 1.207944 0.171277 1.336295
Ta 4.9603 1.57723 4.99617 0.634253 0.567922 -0.173103
Ta 8.3559 1.62409 5.03154 -0.530634 1.162549 -0.066204
Ta 4.7903 1.73365 8.2792 1.03526 -0.144088 0.183756
Ta 6.74404 9.77079 6.64995 -1.450453 2.324287 -0.166798
Ta 8.09234 1.79785 8.24264 1.673615 -1.361805 0.313033
Ta 6.57421 3.42967 6.77064 0.019605 -0.880931 -1.798564
Ta 1.57913 5.11576 4.95243 0.306594 -0.25138 -0.080154
Ta 1.69273 8.20716 4.92075 -0.341052 1.046973 0.557303
Ta 1.43354 4.91751 8.16401 2.287861 1.338427 1.255018
Ta 0.01425 6.67723 6.65523 -1.147897 -0.077148 -0.417608
Ta 1.58291 8.27957 8.26309 0.342823 0.685693 0.016051
Ta 3.42748 6.83665 6.641 -1.510001 -2.239526 0.838695
Ta 4.97343 5.04097 5.00585 -0.037888 -0.412025 0.456637
Ta 8.4039 4.8646 4.9179 -0.583261 0.965744 0.28682
Ta 4.91928 8.3318 5.11892 1.250045 -0.399127 -2.452135
Ta 8.20159 8.28199 4.88507 0.813012 0.601139 0.388164
Ta 5.04212 4.99253 8.32778 -1.424968 0.603147 -0.546645
Ta 8.29629 4.88656 8.35075 0.628928 2.792969 -1.330955
Ta 5.08862 8.21773 8.50315 -0.984696 1.400694 -1.476016
Ta 6.79769 6.74824 6.68609 -1.854116 -2.150746 -0.908504
Ta 8.1091 8.29833 8.26479 2.601277 0.654768 1.938542
54
Lattice = "9.96000003815 0.0 0.0 0.0 9.96000003815 0.0 0.0 0.0 9.96000003815" Properties=species:S:1:pos:R:3:forces:R:3 energy=-630.960068 stress="47457.030000000006 -1005.83 -232.22 -1005.83 51553.91 452.42 -232.22 452.42 48272.9"
Ta 0.05485 9.94068 0.04882 -0.759723 0.349463 -1.073784
Ta 1.85805 1.77201 1.5217 -1.724392 -0.312777 1.581767
Ta 3.16512 9.83319 0.13832 1.061743 0.568667 -1.386846
Ta 9.93006 3.33808 9.91253 -0.064995 -0.093866 0.630283
Ta 3.35014 3.4521 0.05567 -0.390836 -0.380588 -0.755337
Ta 9.83256 0.11516 3.3997 1.419777 -1.102908 -0.922237
Ta 3.23053 9.80404 3.17024 0.958769 1.69459 1.532703
Ta 0.01161 3.22748 3.27368 0.022937 0.373478 0.292145
Ta 3.35601 3.5215 3.45824 0.330549 -1.676711 -0.671565
Ta 5.17312 1.6729 1.58962 -2.671903 1.121811 0.197691
Ta 6.67768 0.12311 0.12029 -0.440876 -1.26923 -2.349462
Ta 8.34051 1.56504 1.62363 0.168904 1.957241 -0.015229
Ta 6.78008 3.36169 9.8788 -1.638783 -0.833959 1.395422
Ta 6.60936 0.19924 3.21319 -0.445878 -1.774358 1.382608
Ta 6.66488 3.23598 3.33678 -0.05205 1.041637 0.440105
Ta 1.55882 4.89699 1.83484 0.420221 0.664634 -1.787995
Ta 9.92966 6.74077 0.07931 -0.240379 -0.888703 -0.594008
Ta 1.46294 8.36123 1.80347 1.383538 -0.598636 -1.619561
Ta 3.27604 6.65474 9.90339 -0.790555 -1.047873 0.411754
Ta 9.88531 6.85002 3.21939 -0.582286 -2.052939 1.256318
Ta 3.29061 6.52643 3.19139 0.073936 1.783087 1.280681
Ta 4.89996 4.99982 1.70189 1.223371 -0.15804 -0.71227
Ta 8.31065 5.01116 1.69232 -0.087953 0.030026 -0.109796
Ta 4.88784 8.33857 1.51732 0.850961 -0.596673 1.090247
Ta 6.50104 6.53275 9.80774 2.177734 -0.433205 2.899269
Ta 8.2643 8.49938 1.67302 -0.503687 -1.58688 0.09942
Ta 6.55463 6.57827 3.32912 0.424308 0.463881 -0.236654
Ta 1.62393 1.56011 4.84451 0.739422 0.750623 1.039514
Ta 9.83601 0.23425 6.80872 1.000448 -2.657832 -1.896794
Ta 1.61133 1.59769 8.41214 1.032998 0.937424 -0.476098
Ta 3.35598 0.02593 6.56637 -1.123068 -0.410917 1.065083
Ta 0.09395 3.33379 6.73292 -1.590772 -1.594874 -2.032464
Ta 3.10315 3.36912 6.45924 1.749889 -0.890546 1.008948
Ta 4.94948 1.60844 5.13297 0.326327 0.438573 -0.854681
Ta 8.3112 1.6084 4.98866 -0.787743 1.376575 0.740112
Ta 4.84637 1.81183 8.24772 0.358933 -1.184604 0.522666
Ta 6.65846 9.76479 6.73502 -0.922055 2.08298 -0.978385
Ta 8.20906 1.73062 8.14887 0.457034 -0.533352 2.19381
Ta 6.58641 3.34768 6.84906 -0.07115 -0.232275 -3.047979
Ta 1.68643 5.13518 4.9899 -0.983213 0.345899 0.008163
Ta 1.66974 8.17852 4.94291 -0.25579 1.350395 0.365493
Ta 1.47384 4.8564 8.10261 2.294153 2.563508 2.527259
Ta 9.88912 6.80164 6.77309 -0.120678 -1.620395 -1.826051
Ta 1.55837 8.19547 8.30267 0.878074 1.467856 0.015021
Ta 3.56356 6.83284 6.56625 -2.486358 -1.682642 1.765681
Ta 4.99706 5.12232 5.11423 0.43805 -1.159229 -0.988294
Ta 8.4671 4.91132 4.92219 -1.21811 0.738609 0.182139
Ta 4.87329 8.34516 4.9908 1.555301 0.282701 -1.632594
Ta 8.1534 8.37445 4.79401 0.515688 -0.19719 1.530097
Ta 5.00952 4.94855 8.26218 -1.33193 0.185129 -0.033086
Ta 8.21481 4.8505 8.29903 1.753267 2.042376 0.013681
Ta 5.14988 8.12501 8.49478 -2.325196 2.631836 -1.723209
Ta 6.79841 6.70737 6.74515 -1.373171 -1.292054 -2.073736
Ta 8.2086 8.27306 8.2346 1.367197 1.020256 2.330032
54
Lattice = "9.96000003815 0.0 0.0 0.0 9.96000003815 0.0 0.0 0.0 9.96000003815" Properties=species:S:1:pos:R:3:forces:R:3 energy=-623.378198 stress="80008.25 -785.4100000000001 1601.25 -785.4100000000001 86520.39 4960.87 1601.25 4960.87 85233.93000000001"
Ta 9.95615 9.94979 0.16514 -0.137356 -0.028883 -3.40463
Ta 1.87163 1.71307 1.41378 -1.76357 0.590114 2.267852
Ta 3.17989 9.83685 0.10642 1.277421 0.225697 -1.841016
Ta 9.90024 3.33884 9.82529 0.735381 -0.941566 1.77777
Ta 3.4188 3.54303 0.14009 -1.606974 -1.518343 -1.948061
Ta 9.8553 0.24533 3.33787 2.112303 -3.154318 -0.288821
Ta 3.17514 9.74142 3.2 1.589191 1.94113 1.194543
Ta 0.11128 3.26365 3.15053 -0.364264 -0.441607 0.999143
Ta 3.37385 3.56077 3.43718 -0.10161 -1.946969 -0.790652
Ta 5.20458 1.63365 1.50672 -4.374578 3.807338 1.826632
Ta 6.57608 0.24353 0.2053 1.355941 -3.643228 -5.429459
Ta 8.39734 1.42414 1.60164 -0.6903 5.287807 -0.169411
Ta 6.79744 3.4915 9.76717 -3.482997 -2.71942 3.817554
Ta 6.57033 0.23978 3.13517 0.116586 -1.988113 3.629484
Ta 6.72113 3.22949 3.3633 -0.338679 0.658098 0.181119
Ta 1.57149 4.94775 1.80091 0.075728 0.493399 -1.98724
Ta 9.92064 6.87072 0.13795 -0.725063 -1.775537 -0.966934
Ta 1.41785 8.41983 1.76001 1.411759 -1.132459 -0.69594
Ta 3.14851 6.64163 0.03349 0.008652 -0.525052 -0.43074
Ta 9.7788 6.83849 3.18243 0.240296 -2.124804 1.273631
Ta 3.16533 6.57739 3.14068 1.48579 1.371308 1.35272
Ta 4.90709 4.92946 1.61468 1.153866 1.203555 0.949633
Ta 8.33316 4.92031 1.59073 -0.391861 0.974553 0.849438
Ta 4.9596 8.47655 1.51542 -0.546245 -2.139501 1.15131
Ta 6.44823 6.51342 9.85247 2.586298 -0.265344 3.052647
Ta 8.17315 8.54045 1.75264 -0.705353 -2.252394 -0.493293
Ta 6.39303 6.44322 3.27828 1.523627 1.285888 -0.061445
Ta 1.70938 1.43709 4.84222 0.306581 1.628448 1.044131
Ta 9.71238 0.24769 6.81385 1.995125 -2.589965 -0.973181
Ta 1.68921 1.55889 8.35846 0.351955 0.61258 -0.208928
Ta 3.47749 9.92814 6.63177 -2.081328 0.048903 1.244886
Ta 0.07656 3.32278 6.77536 -1.946033 -1.979053 -2.885009
Ta 3.07793 3.27871 6.40803 1.81774 -0.328617 1.303887
Ta 4.90115 1.58004 5.10411 0.818241 0.705137 -0.829745
Ta 8.43888 1.56841 5.00344 -2.225694 2.689319 0.426868
Ta 4.81957 1.88977 8.30861 0.398342 -1.185455 -0.079158
Ta 6.73863 9.78981 6.71678 -2.05864 2.854477 -1.371358
Ta 8.05528 1.82891 8.19103 1.951662 -1.704639 1.321716
Ta 6.59394 3.44619 6.83462 -0.445378 -0.730496 -3.696673
Ta 1.65312 5.15331 5.0431 -0.703206 0.151193 -0.646398
Ta 1.60774 8.12544 4.90328 -0.101304 1.629949 1.006095
Ta 1.42058 4.79056 8.10344 3.354131 3.342928 2.609888
Ta 9.92554 6.78882 6.73898 -1.110388 -1.85868 -1.874234
Ta 1.4639 8.19238 8.28284 1.738894 1.866439 0.339074
Ta 3.56301 6.81221 6.61544 -3.063945 -1.111905 1.132298
Ta 4.934 5.10947 5.11506 0.832308 -0.890416 -0.494106
Ta 8.45728 4.85519 4.78408 -1.053171 0.965832 0.968872
Ta 4.91173 8.4049 5.06479 1.33012 -0.900003 -2.085329
Ta 8.16172 8.38305 4.77586 0.217903 -0.195045 1.235079
Ta 4.96219 4.997 8.25034 -1.340837 0.253721 -0.064669
Ta 8.22081 4.83811 8.40873 2.589217 4.367823 -2.571794
Ta 5.19313 8.07977 8.4862 -3.823089 3.630743 -0.94626
Ta 6.77011 6.85567 6.82197 -2.081899 -4.511915 -4.402203
Ta 8.12043 8.25909 8.1457 3.888707 1.997353 4.680418
