30
Lattice = "5.75041007996 0.0 0.0 0.0 4.69518995285 0.0 0.0 0.0 39.8400001526" Properties=species:S:1:pos:R:3:forces:R:3 energy=-345.175835 stress="-13147.16 0.0 -3780.86 0.0 -8634.359999999999 0.0 -3780.86 0.0 -262.94"
Ta 0.9892 0.0 2.67612 0.024552 0.0 -0.00195
Ta 0.00727 2.34759 4.02628 0.020645 0.0 9.3e-05
Ta 2.88247 2.34759 4.02628 0.020645 0.0 9.3e-05
Ta 0.17997 0.0 0.13381 0.04617 0.0 -0.000386
Ta 3.05517 0.0 0.13381 0.04617 0.0 -0.000386
Ta 1.87083 2.34759 1.2728 -0.032821 0.0 -0.001196
Ta 4.74604 2.34759 1.2728 -0.032821 0.0 -0.001196
Ta 3.86441 0.0 2.67612 0.024552 0.0 -0.00195
Ta 0.94648 2.34759 6.72012 0.031811 0.0 0.000572
Ta 0.00117 0.0 8.09323 0.426675 0.0 0.000202
Ta 2.87637 0.0 8.09323 0.426675 0.0 0.000202
Ta 1.91123 0.0 5.35809 -0.1254 0.0 0.000587
Ta 4.78644 0.0 5.35809 -0.1254 0.0 0.000587
Ta 3.82169 2.34759 6.72012 0.031811 0.0 0.000572
Ta 1.9168 2.34759 9.40413 -0.175762 0.0 0.000278
Ta 4.79201 2.34759 9.40413 -0.175762 0.0 0.000278
Ta 2.10731 0.0 10.91795 0.187758 0.0 0.000468
Ta 1.162 2.34759 12.2439 -0.520663 0.0 0.000295
Ta 4.0372 2.34759 12.2439 -0.520663 0.0 0.000295
Ta 4.98252 0.0 10.91795 0.187758 0.0 0.000468
Ta 2.10121 2.34759 14.96595 0.131217 0.0 0.000175
Ta 1.11928 0.0 16.30656 -0.015432 0.0 6e-06
Ta 3.99448 0.0 16.30656 -0.015432 0.0 6e-06
Ta 3.11285 2.34759 17.71541 0.007977 0.0 0.000401
Ta 0.23765 2.34759 17.71541 0.007977 0.0 0.000401
Ta 3.07245 0.0 13.62798 0.021452 0.0 0.000107
Ta 0.19725 0.0 13.62798 0.021452 0.0 0.000107
Ta 4.97642 2.34759 14.96595 0.131217 0.0 0.000175
Ta 1.92851 0.0 18.85304 -0.028176 0.0 0.00035
Ta 4.80372 0.0 18.85304 -0.028176 0.0 0.00035
30
Lattice = "5.75041007996 0.0 0.0 0.0 4.69518995285 0.0 0.0 0.0 39.8400001526" Properties=species:S:1:pos:R:3:forces:R:3 energy=-346.361714 stress="-10339.27 0.0 -4235.839999999999 0.0 -10300.0 0.0 -4235.839999999999 0.0 -143.8"
Ta 0.9892 0.0 2.71788 0.039491 0.0 -0.003174
Ta 0.00727 2.34759 4.0686 -0.006941 0.0 0.000225
Ta 2.88247 2.34759 4.0686 -0.006941 0.0 0.000225
Ta 0.17997 0.0 0.18084 0.006017 0.0 -0.000536
Ta 3.05517 0.0 0.18084 0.006017 0.0 -0.000536
Ta 1.87083 2.34759 1.32379 -0.009843 0.0 -0.001904
Ta 4.74604 2.34759 1.32379 -0.009843 0.0 -0.001904
Ta 3.86441 0.0 2.71788 0.039491 0.0 -0.003174
Ta 0.94648 2.34759 6.76401 0.031952 0.0 0.001417
Ta 0.00117 0.0 8.13836 0.170121 0.0 0.00142
Ta 2.87637 0.0 8.13836 0.170121 0.0 0.00142
Ta 1.91123 0.0 5.41435 -0.068665 0.0 0.001093
Ta 4.78644 0.0 5.41435 -0.068665 0.0 0.001093
Ta 3.82169 2.34759 6.76401 0.031952 0.0 0.001417
Ta 1.9168 2.34759 9.47269 0.56983 0.0 0.001115
Ta 4.79201 2.34759 9.47269 0.56983 0.0 0.001115
Ta 1.24475 0.0 10.85237 -0.591123 0.0 0.000193
Ta 0.29944 2.34759 12.20261 -0.170693 0.0 -0.00076
Ta 3.17464 2.34759 12.20261 -0.170693 0.0 -0.00076
Ta 4.11996 0.0 10.85237 -0.591123 0.0 0.000193
Ta 1.23865 2.34759 14.90362 0.062003 0.0 -0.000147
Ta 0.25672 0.0 16.25811 0.014238 0.0 6.7e-05
Ta 3.13192 0.0 16.25811 0.014238 0.0 6.7e-05
Ta 2.25029 2.34759 17.65366 -0.022348 0.0 0.000828
Ta 5.1255 2.34759 17.65366 -0.022348 0.0 0.000828
Ta 2.20989 0.0 13.56973 -0.01066 0.0 -0.000183
Ta 5.0851 0.0 13.56973 -0.01066 0.0 -0.000183
Ta 4.11386 2.34759 14.90362 0.062003 0.0 -0.000147
Ta 1.06595 0.0 18.79472 -0.01338 0.0 0.000344
Ta 3.94116 0.0 18.79472 -0.01338 0.0 0.000344
30
Lattice = "5.75041007996 0.0 0.0 0.0 4.69518995285 0.0 0.0 0.0 39.8400001526" Properties=species:S:1:pos:R:3:forces:R:3 energy=-345.795524 stress="-11480.130000000001 0.0 -5932.89 0.0 -5542.72 0.0 -5932.89 0.0 3462.38"
Ta 0.9892 0.0 2.7203 0.054393 0.0 0.051613
Ta 0.00727 2.34759 4.07239 0.011422 0.0 0.01044
Ta 2.88247 2.34759 4.07239 0.011422 0.0 0.01044
Ta 0.17997 0.0 0.18449 0.010146 0.0 -0.022298
Ta 3.05517 0.0 0.18449 0.010146 0.0 -0.022298
Ta 1.87083 2.34759 1.32776 -0.011079 0.0 -0.021669
Ta 4.74604 2.34759 1.32776 -0.011079 0.0 -0.021669
Ta 3.86441 0.0 2.7203 0.054393 0.0 0.051613
Ta 0.94648 2.34759 6.77133 0.038911 0.0 -0.069106
Ta 0.00117 0.0 8.1367 0.287747 0.0 -0.1262
Ta 2.87637 0.0 8.1367 0.287747 0.0 -0.1262
Ta 1.91123 0.0 5.41489 -0.141892 0.0 0.03774
Ta 4.78644 0.0 5.41489 -0.141892 0.0 0.03774
Ta 3.82169 2.34759 6.77133 0.038911 0.0 -0.069106
Ta 1.9168 2.34759 9.48769 0.847487 0.0 -0.484094
Ta 4.79201 2.34759 9.48769 0.847487 0.0 -0.484094
Ta 1.53227 0.0 10.83871 -0.88891 0.0 0.460491
Ta 0.58696 2.34759 12.20409 -0.291722 0.0 0.122028
Ta 3.46216 2.34759 12.20409 -0.291722 0.0 0.122028
Ta 4.40748 0.0 10.83871 -0.88891 0.0 0.460491
Ta 1.52617 2.34759 14.90296 0.134409 0.0 -0.060843
Ta 0.54424 0.0 16.25507 -0.007639 0.0 -0.054033
Ta 3.41944 0.0 16.25507 -0.007639 0.0 -0.054033
Ta 2.53781 2.34759 17.64762 -0.034954 0.0 0.011635
Ta 5.41302 2.34759 17.64762 -0.034954 0.0 0.011635
Ta 2.49741 0.0 13.56045 -0.007731 0.0 0.131746
Ta 5.37262 0.0 13.56045 -0.007731 0.0 0.131746
Ta 4.40138 2.34759 14.90296 0.134409 0.0 -0.060843
Ta 1.35347 0.0 18.79091 -0.000588 0.0 0.012548
Ta 4.22868 0.0 18.79091 -0.000588 0.0 0.012548
30
Lattice = "5.75041007996 0.0 0.0 0.0 4.69518995285 0.0 0.0 0.0 39.8400001526" Properties=species:S:1:pos:R:3:forces:R:3 energy=-345.164602 stress="-11863.390000000001 0.0 -2699.1299999999997 0.0 -8952.85 0.0 -2699.1299999999997 0.0 -224.73000000000002"
Ta 0.9892 0.0 2.67528 0.007638 0.0 0.001035
Ta 0.00727 2.34759 4.02882 0.030305 0.0 -0.001775
Ta 2.88247 2.34759 4.02882 0.030305 0.0 -0.001775
Ta 0.17997 0.0 0.13405 0.029187 0.0 -0.000966
Ta 3.05517 0.0 0.13405 0.029187 0.0 -0.000966
Ta 1.87083 2.34759 1.27454 -0.02274 0.0 0.00023
Ta 4.74604 2.34759 1.27454 -0.02274 0.0 0.00023
Ta 3.86441 0.0 2.67528 0.007638 0.0 0.001035
Ta 0.94648 2.34759 6.72231 -0.027764 0.0 -0.000181
Ta 0.00117 0.0 8.09205 0.529066 0.0 -0.000552
Ta 2.87637 0.0 8.09205 0.529066 0.0 -0.000552
Ta 1.91123 0.0 5.3597 -0.091215 0.0 -0.000447
Ta 4.78644 0.0 5.3597 -0.091215 0.0 -0.000447
Ta 3.82169 2.34759 6.72231 -0.027764 0.0 -0.000181
Ta 1.9168 2.34759 9.39558 -0.613631 0.0 -0.000278
Ta 4.79201 2.34759 9.39558 -0.613631 0.0 -0.000278
Ta 2.39483 0.0 10.92856 0.685544 0.0 -0.000982
Ta 1.44952 2.34759 12.2419 -0.636467 0.0 0.000459
Ta 4.32472 2.34759 12.2419 -0.636467 0.0 0.000459
Ta 5.27004 0.0 10.92856 0.685544 0.0 -0.000982
Ta 2.38873 2.34759 14.96563 0.083017 0.0 0.000884
Ta 1.4068 0.0 16.30385 -0.037081 0.0 0.000794
Ta 4.282 0.0 16.30385 -0.037081 0.0 0.000794
Ta 3.40038 2.34759 17.71704 0.037388 0.0 0.000623
Ta 0.52518 2.34759 17.71704 0.037388 0.0 0.000623
Ta 3.35997 0.0 13.62371 0.068589 0.0 -0.000292
Ta 0.48477 0.0 13.62371 0.068589 0.0 -0.000292
Ta 5.26394 2.34759 14.96563 0.083017 0.0 0.000884
Ta 2.21604 0.0 18.85233 -0.041835 0.0 0.001449
Ta 5.09124 0.0 18.85233 -0.041835 0.0 0.001449
30
Lattice = "5.75041007996 0.0 0.0 0.0 4.69518995285 0.0 0.0 0.0 39.8400001526" Properties=species:S:1:pos:R:3:forces:R:3 energy=-346.593523 stress="-9414.98 0.0 -281.99 0.0 -11857.62 0.0 -281.99 0.0 174.60999999999999"
Ta 0.9892 0.0 2.7203 0.00126 0.0 -0.000952
Ta 0.00727 2.34759 4.07239 0.002425 0.0 -0.000721
Ta 2.88247 2.34759 4.07239 0.002425 0.0 -0.000721
Ta 0.17997 0.0 0.18449 0.003483 0.0 -0.001569
Ta 3.05517 0.0 0.18449 0.003483 0.0 -0.001569
Ta 1.87083 2.34759 1.32776 -0.001158 0.0 -0.001292
Ta 4.74604 2.34759 1.32776 -0.001158 0.0 -0.001292
Ta 3.86441 0.0 2.7203 0.00126 0.0 -0.000952
Ta 0.94648 2.34759 6.77133 -0.000275 0.0 -0.000556
Ta 0.00117 0.0 8.1367 0.001745 0.0 0.000187
Ta 2.87637 0.0 8.1367 0.001745 0.0 0.000187
Ta 1.91123 0.0 5.41489 0.00171 0.0 -0.000333
Ta 4.78644 0.0 5.41489 0.00171 0.0 -0.000333
Ta 3.82169 2.34759 6.77133 -0.000275 0.0 -0.000556
Ta 1.9168 2.34759 9.48769 0.0 0.0 0.0
Ta 4.79201 2.34759 9.48769 0.0 0.0 0.0
Ta 0.95723 0.0 10.83871 -0.001745 0.0 -0.000187
Ta 0.01192 2.34759 12.20409 0.000275 0.0 0.000556
Ta 2.88712 2.34759 12.20409 0.000275 0.0 0.000556
Ta 3.83244 0.0 10.83871 -0.001745 0.0 -0.000187
Ta 0.95113 2.34759 14.90296 -0.002425 0.0 0.000721
Ta 5.71961 0.0 16.25507 -0.00126 0.0 0.000952
Ta 2.8444 0.0 16.25507 -0.00126 0.0 0.000952
Ta 1.96277 2.34759 17.64762 0.001158 0.0 0.001292
Ta 4.83798 2.34759 17.64762 0.001158 0.0 0.001292
Ta 1.92237 0.0 13.56045 -0.00171 0.0 0.000333
Ta 4.79758 0.0 13.56045 -0.00171 0.0 0.000333
Ta 3.82634 2.34759 14.90296 -0.002425 0.0 0.000721
Ta 0.77843 0.0 18.79091 -0.003483 0.0 0.001569
Ta 3.65364 0.0 18.79091 -0.003483 0.0 0.001569
30
Lattice = "5.75041007996 0.0 0.0 0.0 4.69518995285 0.0 0.0 0.0 39.8400001526" Properties=species:S:1:pos:R:3:forces:R:3 energy=-346.396186 stress="-10475.46 0.0 3307.63 0.0 -12303.68 0.0 3307.63 0.0 -222.97"
Ta 0.9892 0.0 2.7089 -0.03377 0.0 0.000745
Ta 0.00727 2.34759 4.06352 0.026744 0.0 -0.000861
Ta 2.88247 2.34759 4.06352 0.026744 0.0 -0.000861
Ta 0.17997 0.0 0.17306 0.009028 0.0 8.9e-05
Ta 3.05517 0.0 0.17306 0.009028 0.0 8.9e-05
Ta 1.87083 2.34759 1.31619 -0.000498 0.0 -6.9e-05
Ta 4.74604 2.34759 1.31619 -0.000498 0.0 -6.9e-05
Ta 3.86441 0.0 2.7089 -0.03377 0.0 0.000745
Ta 0.94648 2.34759 6.76338 -0.065394 0.0 0.000752
Ta 0.00117 0.0 8.1099 -0.098249 0.0 -0.002005
Ta 2.87637 0.0 8.1099 -0.098249 0.0 -0.002005
Ta 1.91123 0.0 5.40302 0.044662 0.0 -0.00054
Ta 4.78644 0.0 5.40302 0.044662 0.0 -0.00054
Ta 3.82169 2.34759 6.76338 -0.065394 0.0 0.000752
Ta 1.9168 2.34759 9.48192 -0.476879 0.0 0.000537
Ta 4.79201 2.34759 9.48192 -0.476879 0.0 0.000537
Ta 3.54491 0.0 10.84588 0.484374 0.0 -0.000329
Ta 2.59961 2.34759 12.23162 0.102585 0.0 0.000934
Ta 5.47481 2.34759 12.23162 0.102585 0.0 0.000934
Ta 0.66971 0.0 10.84588 0.484374 0.0 -0.000329
Ta 3.53881 2.34759 14.91622 -0.038582 0.0 0.000491
Ta 2.55688 0.0 16.2663 -0.029184 0.0 8.5e-05
Ta 5.43208 0.0 16.2663 -0.029184 0.0 8.5e-05
Ta 4.55046 2.34759 17.66134 0.026269 0.0 -0.000704
Ta 1.67526 2.34759 17.66134 0.026269 0.0 -0.000704
Ta 4.51005 0.0 13.57023 0.044788 0.0 0.000159
Ta 1.63485 0.0 13.57023 0.044788 0.0 0.000159
Ta 0.66361 2.34759 14.91622 -0.038582 0.0 0.000491
Ta 3.36612 0.0 18.80388 0.004104 0.0 0.000717
Ta 0.49092 0.0 18.80388 0.004104 0.0 0.000717
30
Lattice = "5.75041007996 0.0 0.0 0.0 4.69518995285 0.0 0.0 0.0 39.8400001526" Properties=species:S:1:pos:R:3:forces:R:3 energy=-345.319406 stress="-11416.52 0.0 -757.17 0.0 -9138.949999999999 0.0 -757.17 0.0 -340.37"
Ta 0.9892 0.0 2.6792 -0.016362 0.0 0.000549
Ta 0.00727 2.34759 4.0346 0.061621 0.0 0.000282
Ta 2.88247 2.34759 4.0346 0.061621 0.0 0.000282
Ta 0.17997 0.0 0.13955 0.017834 0.0 -0.000235
Ta 3.05517 0.0 0.13955 0.017834 0.0 -0.000235
Ta 1.87083 2.34759 1.28166 -0.013104 0.0 -5.3e-05
Ta 4.74604 2.34759 1.28166 -0.013104 0.0 -5.3e-05
Ta 3.86441 0.0 2.6792 -0.016362 0.0 0.000549
Ta 0.94648 2.34759 6.7292 -0.109435 0.0 -0.002041
Ta 0.00117 0.0 8.07884 0.457863 0.0 0.000169
Ta 2.87637 0.0 8.07884 0.457863 0.0 0.000169
Ta 1.91123 0.0 5.36942 -0.062934 0.0 -0.000236
Ta 4.78644 0.0 5.36942 -0.062934 0.0 -0.000236
Ta 3.82169 2.34759 6.7292 -0.109435 0.0 -0.002041
Ta 1.9168 2.34759 9.41051 -0.711692 0.0 0.000101
Ta 4.79201 2.34759 9.41051 -0.711692 0.0 0.000101
Ta 2.68235 0.0 10.91706 0.761406 0.0 -0.00084
Ta 1.73705 2.34759 12.25543 -0.48479 0.0 0.001087
Ta 4.61225 2.34759 12.25543 -0.48479 0.0 0.001087
Ta 5.55756 0.0 10.91706 0.761406 0.0 -0.00084
Ta 2.67625 2.34759 14.95587 0.044573 0.0 0.001069
Ta 1.69432 0.0 16.29727 -0.054726 0.0 0.000221
Ta 4.56952 0.0 16.29727 -0.054726 0.0 0.000221
Ta 3.6879 2.34759 17.70919 0.045804 0.0 -0.000493
Ta 0.8127 2.34759 17.70919 0.045804 0.0 -0.000493
Ta 3.64749 0.0 13.61175 0.101011 0.0 0.001537
Ta 0.77229 0.0 13.61175 0.101011 0.0 0.001537
Ta 5.55146 2.34759 14.95587 0.044573 0.0 0.001069
Ta 2.50356 0.0 18.84582 -0.037068 0.0 -0.001117
Ta 5.37876 0.0 18.84582 -0.037068 0.0 -0.001117
30
Lattice = "5.75041007996 0.0 0.0 0.0 4.69518995285 0.0 0.0 0.0 39.8400001526" Properties=species:S:1:pos:R:3:forces:R:3 energy=-345.594794 stress="-11819.76 0.0 1952.92 0.0 -9519.769999999999 0.0 1952.92 0.0 -130.88"
Ta 0.9892 0.0 2.68665 -0.031396 0.0 0.000256
Ta 0.00727 2.34759 4.04268 0.07751 0.0 -0.000764
Ta 2.88247 2.34759 4.04268 0.07751 0.0 -0.000764
Ta 0.17997 0.0 0.14906 0.014641 0.0 -0.00412
Ta 3.05517 0.0 0.14906 0.014641 0.0 -0.00412
Ta 1.87083 2.34759 1.29212 -0.010131 0.0 -0.002448
Ta 4.74604 2.34759 1.29212 -0.010131 0.0 -0.002448
Ta 3.86441 0.0 2.68665 -0.031396 0.0 0.000256
Ta 0.94648 2.34759 6.73839 -0.134831 0.0 0.001428
Ta 0.00117 0.0 8.07155 0.239952 0.0 0.002962
Ta 2.87637 0.0 8.07155 0.239952 0.0 0.002962
Ta 1.91123 0.0 5.38052 -0.030029 0.0 -0.000509
Ta 4.78644 0.0 5.38052 -0.030029 0.0 -0.000509
Ta 3.82169 2.34759 6.73839 -0.134831 0.0 0.001428
Ta 1.9168 2.34759 9.43202 -0.708973 0.0 0.000446
Ta 4.79201 2.34759 9.43202 -0.708973 0.0 0.000446
Ta 2.96987 0.0 10.89606 0.708813 0.0 0.000528
Ta 2.02457 2.34759 12.26428 -0.203649 0.0 0.002064
Ta 4.89977 2.34759 12.26428 -0.203649 0.0 0.002064
Ta 0.09467 0.0 10.89606 0.708813 0.0 0.000528
Ta 2.96377 2.34759 14.9433 0.014742 0.0 -0.000587
Ta 1.98184 0.0 16.28932 -0.077212 0.0 0.001835
Ta 4.85704 0.0 16.28932 -0.077212 0.0 0.001835
Ta 3.97542 2.34759 17.69607 0.052551 0.0 -9.3e-05
Ta 1.10022 2.34759 17.69607 0.052551 0.0 -9.3e-05
Ta 3.93501 0.0 13.59778 0.097817 0.0 0.000127
Ta 1.05981 0.0 13.59778 0.097817 0.0 0.000127
Ta 0.08857 2.34759 14.9433 0.014742 0.0 -0.000587
Ta 2.79108 0.0 18.83554 -0.009805 0.0 -0.001124
Ta 5.66629 0.0 18.83554 -0.009805 0.0 -0.001124
30
Lattice = "5.75041007996 0.0 0.0 0.0 4.69518995285 0.0 0.0 0.0 39.8400001526" Properties=species:S:1:pos:R:3:forces:R:3 energy=-345.98566 stress="-11481.859999999999 0.0 3919.02 0.0 -10708.259999999998 0.0 3919.02 0.0 -234.91"
Ta 0.9892 0.0 2.69672 -0.042372 0.0 -0.001938
Ta 0.00727 2.34759 4.05296 0.05908 0.0 0.000592
Ta 2.88247 2.34759 4.05296 0.05908 0.0 0.000592
Ta 0.17997 0.0 0.16008 0.012695 0.0 0.000742
Ta 3.05517 0.0 0.16008 0.012695 0.0 0.000742
Ta 1.87083 2.34759 1.30375 -0.006266 0.0 -0.00108
Ta 4.74604 2.34759 1.30375 -0.006266 0.0 -0.00108
Ta 3.86441 0.0 2.69672 -0.042372 0.0 -0.001938
Ta 0.94648 2.34759 6.75108 -0.115544 0.0 0.001071
Ta 0.00117 0.0 8.08344 0.015442 0.0 7e-06
Ta 2.87637 0.0 8.08344 0.015442 0.0 7e-06
Ta 1.91123 0.0 5.39189 0.017023 0.0 -0.000768
Ta 4.78644 0.0 5.39189 0.017023 0.0 -0.000768
Ta 3.82169 2.34759 6.75108 -0.115544 0.0 0.001071
Ta 1.9168 2.34759 9.45911 -0.69384 0.0 0.000691
Ta 4.79201 2.34759 9.45911 -0.69384 0.0 0.000691
Ta 3.25739 0.0 10.86943 0.687279 0.0 -0.000892
Ta 2.31209 2.34759 12.25603 0.025406 0.0 0.001977
Ta 5.18729 2.34759 12.25603 0.025406 0.0 0.001977
Ta 0.38219 0.0 10.86943 0.687279 0.0 -0.000892
Ta 3.25129 2.34759 14.92962 -0.021568 0.0 -0.000155
Ta 2.26936 0.0 16.27869 -0.069625 0.0 6e-05
Ta 5.14456 0.0 16.27869 -0.069625 0.0 6e-05
Ta 4.26294 2.34759 17.67903 0.042589 0.0 -0.000517
Ta 1.38774 2.34759 17.67903 0.042589 0.0 -0.000517
Ta 4.22253 0.0 13.58337 0.088627 0.0 -0.000326
Ta 1.34733 0.0 13.58337 0.088627 0.0 -0.000326
Ta 0.37609 2.34759 14.92962 -0.021568 0.0 -0.000155
Ta 3.0786 0.0 18.82016 0.001073 0.0 0.000537
Ta 0.2034 0.0 18.82016 0.001073 0.0 0.000537
30
Lattice = "5.75041007996 0.0 0.0 0.0 4.69518995285 0.0 0.0 0.0 39.8400001526" Properties=species:S:1:pos:R:3:forces:R:3 energy=-345.383994 stress="-14034.28 0.0 -4327.110000000001 0.0 -7778.13 0.0 -4327.110000000001 0.0 -145.71"
Ta 0.9892 0.0 2.68561 0.041017 0.0 -0.001969
Ta 0.00727 2.34759 4.03469 0.0126 0.0 -0.000764
Ta 2.88247 2.34759 4.03469 0.0126 0.0 -0.000764
Ta 0.17997 0.0 0.14398 0.044685 0.0 -0.000337
Ta 3.05517 0.0 0.14398 0.044685 0.0 -0.000337
Ta 1.87083 2.34759 1.28198 -0.034873 0.0 -0.000989
Ta 4.74604 2.34759 1.28198 -0.034873 0.0 -0.000989
Ta 3.86441 0.0 2.68561 0.041017 0.0 -0.001969
Ta 0.94648 2.34759 6.72523 0.015472 0.0 9.3e-05
Ta 0.00117 0.0 8.09686 0.374311 0.0 -0.000718
Ta 2.87637 0.0 8.09686 0.374311 0.0 -0.000718
Ta 1.91123 0.0 5.37077 -0.13875 0.0 0.000234
Ta 4.78644 0.0 5.37077 -0.13875 0.0 0.000234
Ta 3.82169 2.34759 6.72523 0.015472 0.0 9.3e-05
Ta 1.9168 2.34759 9.42312 0.226851 0.0 -0.000505
Ta 4.79201 2.34759 9.42312 0.226851 0.0 -0.000505
Ta 1.81979 0.0 10.90137 -0.264136 0.0 0.001111
Ta 0.87448 2.34759 12.24514 -0.397596 0.0 -1.3e-05
Ta 3.74968 2.34759 12.24514 -0.397596 0.0 -1.3e-05
Ta 4.695 0.0 10.90137 -0.264136 0.0 0.001111
Ta 1.81369 2.34759 14.95092 0.137584 0.0 0.001218
Ta 0.83176 0.0 16.29656 -0.006289 0.0 -0.001428
Ta 3.70696 0.0 16.29656 -0.006289 0.0 -0.001428
Ta 2.82533 2.34759 17.69976 -0.018746 0.0 0.000228
Ta 5.70054 2.34759 17.69976 -0.018746 0.0 0.000228
Ta 2.78493 0.0 13.62057 0.025174 0.0 0.001582
Ta 5.66014 0.0 13.62057 0.025174 0.0 0.001582
Ta 4.6889 2.34759 14.95092 0.137584 0.0 0.001218
Ta 1.64099 0.0 18.83881 -0.017303 0.0 0.002258
Ta 4.5162 0.0 18.83881 -0.017303 0.0 0.002258
30
Lattice = "5.75041007996 0.0 0.0 0.0 4.69518995285 0.0 0.0 0.0 39.8400001526" Properties=species:S:1:pos:R:3:forces:R:3 energy=-346.582564 stress="-9591.91 0.0 -296.03000000000003 0.0 -12027.84 0.0 -296.03000000000003 0.0 -17.44"
Ta 0.9892 0.0 2.72001 0.001297 0.0 -0.000868
Ta 0.00727 2.34759 4.07221 0.002338 0.0 -0.000918
Ta 2.88247 2.34759 4.07221 0.002338 0.0 -0.000918
Ta 0.17997 0.0 0.18416 0.004037 0.0 -0.001343
Ta 3.05517 0.0 0.18416 0.004037 0.0 -0.001343
Ta 1.87083 2.34759 1.32742 -0.00151 0.0 -0.00104
Ta 4.74604 2.34759 1.32742 -0.00151 0.0 -0.00104
Ta 3.86441 0.0 2.72001 0.001297 0.0 -0.000868
Ta 0.94648 2.34759 6.77122 -0.000493 0.0 -5.2e-05
Ta 0.00117 0.0 8.13674 0.002006 0.0 -0.000634
Ta 2.87637 0.0 8.13674 0.002006 0.0 -0.000634
Ta 1.91123 0.0 5.41485 0.001966 0.0 -0.001189
Ta 4.78644 0.0 5.41485 0.001966 0.0 -0.001189
Ta 3.82169 2.34759 6.77122 -0.000493 0.0 -5.2e-05
Ta 1.9168 2.34759 9.48769 0.0 0.0 0.0
Ta 4.79201 2.34759 9.48769 0.0 0.0 0.0
Ta 3.83244 0.0 10.83867 -0.002006 0.0 0.000634
Ta 2.88713 2.34759 12.2042 0.000493 0.0 5.2e-05
Ta 0.01192 2.34759 12.2042 0.000493 0.0 5.2e-05
Ta 0.95723 0.0 10.83867 -0.002006 0.0 0.000634
Ta 3.82633 2.34759 14.90314 -0.002338 0.0 0.000918
Ta 2.8444 0.0 16.25536 -0.001297 0.0 0.000868
Ta 5.7196 0.0 16.25536 -0.001297 0.0 0.000868
Ta 4.83798 2.34759 17.64796 0.00151 0.0 0.00104
Ta 1.96278 2.34759 17.64796 0.00151 0.0 0.00104
Ta 4.79758 0.0 13.56049 -0.001966 0.0 0.001189
Ta 1.92238 0.0 13.56049 -0.001966 0.0 0.001189
Ta 0.95113 2.34759 14.90314 -0.002338 0.0 0.000918
Ta 3.65364 0.0 18.79124 -0.004037 0.0 0.001343
Ta 0.77844 0.0 18.79124 -0.004037 0.0 0.001343
30
Lattice = "5.75041007996 0.0 0.0 0.0 4.69518995285 0.0 0.0 0.0 39.8400001526" Properties=species:S:1:pos:R:3:forces:R:3 energy=-345.452139 stress="-8486.44 0.0 2195.0699999999997 0.0 -6268.24 0.0 2195.0699999999997 0.0 6817.8099999999995"
Ta 0.9892 0.0 2.7203 -0.023223 0.0 0.001016
Ta 0.00727 2.34759 4.07239 0.069003 0.0 0.068642
Ta 2.88247 2.34759 4.07239 0.069003 0.0 0.068642
Ta 0.17997 0.0 0.18449 0.005805 0.0 -0.024588
Ta 3.05517 0.0 0.18449 0.005805 0.0 -0.024588
Ta 1.87083 2.34759 1.32776 -0.003386 0.0 0.004796
Ta 4.74604 2.34759 1.32776 -0.003386 0.0 0.004796
Ta 3.86441 0.0 2.7203 -0.023223 0.0 0.001016
Ta 0.94648 2.34759 6.77133 -0.15941 0.0 0.086585
Ta 0.00117 0.0 8.1367 0.254346 0.0 -0.687398
Ta 2.87637 0.0 8.1367 0.254346 0.0 -0.687398
Ta 1.91123 0.0 5.41489 -0.007273 0.0 0.083064
Ta 4.78644 0.0 5.41489 -0.007273 0.0 0.083064
Ta 3.82169 2.34759 6.77133 -0.15941 0.0 0.086585
Ta 1.9168 2.34759 9.48769 -0.854831 0.0 -0.81341
Ta 4.79201 2.34759 9.48769 -0.854831 0.0 -0.81341
Ta 2.96987 0.0 10.83871 0.856404 0.0 0.869919
Ta 2.02457 2.34759 12.20409 -0.204616 0.0 0.570902
Ta 4.89977 2.34759 12.20409 -0.204616 0.0 0.570902
Ta 0.09467 0.0 10.83871 0.856404 0.0 0.869919
Ta 2.96377 2.34759 14.90296 -0.014831 0.0 -0.080565
Ta 1.98184 0.0 16.25507 -0.069492 0.0 -0.116436
Ta 4.85704 0.0 16.25507 -0.069492 0.0 -0.116436
Ta 3.97542 2.34759 17.64762 0.035331 0.0 0.046498
Ta 1.10022 2.34759 17.64762 0.035331 0.0 0.046498
Ta 3.93501 0.0 13.56045 0.105163 0.0 -0.067164
Ta 1.05981 0.0 13.56045 0.105163 0.0 -0.067164
Ta 0.08857 2.34759 14.90296 -0.014831 0.0 -0.080565
Ta 2.79108 0.0 18.79091 0.011012 0.0 0.058138
Ta 5.66629 0.0 18.79091 0.011012 0.0 0.058138
30
Lattice = "5.75041007996 0.0 0.0 0.0 4.69518995285 0.0 0.0 0.0 39.8400001526" Properties=species:S:1:pos:R:3:forces:R:3 energy=-346.593523 stress="-9415.82 0.0 -282.14 0.0 -11858.18 0.0 -282.14 0.0 174.85"
Ta 0.9892 0.0 2.7203 0.00126 0.0 -0.000951
Ta 0.00727 2.34759 4.07239 0.002425 0.0 -0.000721
Ta 2.88247 2.34759 4.07239 0.002425 0.0 -0.000721
Ta 0.17997 0.0 0.18449 0.003483 0.0 -0.001569
Ta 3.05517 0.0 0.18449 0.003483 0.0 -0.001569
Ta 1.87083 2.34759 1.32776 -0.001158 0.0 -0.001292
Ta 4.74604 2.34759 1.32776 -0.001158 0.0 -0.001292
Ta 3.86441 0.0 2.7203 0.00126 0.0 -0.000951
Ta 0.94648 2.34759 6.77133 -0.000275 0.0 -0.000556
Ta 0.00117 0.0 8.1367 0.001745 0.0 0.000187
Ta 2.87637 0.0 8.1367 0.001745 0.0 0.000187
Ta 1.91123 0.0 5.41489 0.00171 0.0 -0.000333
Ta 4.78644 0.0 5.41489 0.00171 0.0 -0.000333
Ta 3.82169 2.34759 6.77133 -0.000275 0.0 -0.000556
Ta 1.9168 2.34759 9.48769 0.0 0.0 0.0
Ta 4.79201 2.34759 9.48769 0.0 0.0 0.0
Ta 3.83244 0.0 10.83871 -0.001745 0.0 -0.000187
Ta 2.88713 2.34759 12.20409 0.000275 0.0 0.000556
Ta 0.01192 2.34759 12.20409 0.000275 0.0 0.000556
Ta 0.95723 0.0 10.83871 -0.001745 0.0 -0.000187
Ta 3.82633 2.34759 14.90296 -0.002425 0.0 0.000721
Ta 2.8444 0.0 16.25507 -0.00126 0.0 0.000951
Ta 5.7196 0.0 16.25507 -0.00126 0.0 0.000951
Ta 4.83798 2.34759 17.64762 0.001158 0.0 0.001292
Ta 1.96278 2.34759 17.64762 0.001158 0.0 0.001292
Ta 4.79758 0.0 13.56045 -0.00171 0.0 0.000333
Ta 1.92238 0.0 13.56045 -0.00171 0.0 0.000333
Ta 0.95113 2.34759 14.90296 -0.002425 0.0 0.000721
Ta 3.65364 0.0 18.79091 -0.003483 0.0 0.001569
Ta 0.77844 0.0 18.79091 -0.003483 0.0 0.001569
30
Lattice = "5.75041007996 0.0 0.0 0.0 4.69518995285 0.0 0.0 0.0 39.8400001526" Properties=species:S:1:pos:R:3:forces:R:3 energy=-345.281949 stress="-11560.39 0.0 -4653.08 0.0 -2434.16 0.0 -4653.08 0.0 6566.94"
Ta 0.9892 0.0 2.7203 0.050194 0.0 0.096189
Ta 0.00727 2.34759 4.07239 0.024666 0.0 0.022454
Ta 2.88247 2.34759 4.07239 0.024666 0.0 0.022454
Ta 0.17997 0.0 0.18449 0.022221 0.0 -0.035876
Ta 3.05517 0.0 0.18449 0.022221 0.0 -0.035876
Ta 1.87083 2.34759 1.32776 -0.018007 0.0 -0.028654
Ta 4.74604 2.34759 1.32776 -0.018007 0.0 -0.028654
Ta 3.86441 0.0 2.7203 0.050194 0.0 0.096189
Ta 0.94648 2.34759 6.77133 0.035097 0.0 -0.05687
Ta 0.00117 0.0 8.1367 0.39639 0.0 -0.242712
Ta 2.87637 0.0 8.1367 0.39639 0.0 -0.242712
Ta 1.91123 0.0 5.41489 -0.174932 0.0 -0.025096
Ta 4.78644 0.0 5.41489 -0.174932 0.0 -0.025096
Ta 3.82169 2.34759 6.77133 0.035097 0.0 -0.05687
Ta 1.9168 2.34759 9.48769 0.314196 0.0 -0.724221
Ta 4.79201 2.34759 9.48769 0.314196 0.0 -0.724221
Ta 1.81979 0.0 10.83871 -0.356224 0.0 0.668088
Ta 0.87448 2.34759 12.20409 -0.414394 0.0 0.224563
Ta 3.74968 2.34759 12.20409 -0.414394 0.0 0.224563
Ta 4.695 0.0 10.83871 -0.356224 0.0 0.668088
Ta 1.81369 2.34759 14.90296 0.168267 0.0 -0.014012
Ta 0.83176 0.0 16.25507 -0.017608 0.0 -0.08784
Ta 3.70696 0.0 16.25507 -0.017608 0.0 -0.08784
Ta 2.82533 2.34759 17.64762 -0.037555 0.0 0.00518
Ta 5.70054 2.34759 17.64762 -0.037555 0.0 0.00518
Ta 2.78493 0.0 13.56045 0.011122 0.0 0.171223
Ta 5.66014 0.0 13.56045 0.011122 0.0 0.171223
Ta 4.6889 2.34759 14.90296 0.168267 0.0 -0.014012
Ta 1.64099 0.0 18.79091 -0.003433 0.0 0.027583
Ta 4.5162 0.0 18.79091 -0.003433 0.0 0.027583
30
Lattice = "5.75041007996 0.0 0.0 0.0 4.69518995285 0.0 0.0 0.0 39.8400001526" Properties=species:S:1:pos:R:3:forces:R:3 energy=-345.928661 stress="-9145.630000000001 0.0 4495.89 0.0 -8704.09 0.0 4495.89 0.0 4121.84"
Ta 0.9892 0.0 2.7203 -0.037192 0.0 -0.008535
Ta 0.00727 2.34759 4.07239 0.046799 0.0 0.059571
Ta 2.88247 2.34759 4.07239 0.046799 0.0 0.059571
Ta 0.17997 0.0 0.18449 0.009422 0.0 -0.012097
Ta 3.05517 0.0 0.18449 0.009422 0.0 -0.012097
Ta 1.87083 2.34759 1.32776 -0.005981 0.0 0.006654
Ta 4.74604 2.34759 1.32776 -0.005981 0.0 0.006654
Ta 3.86441 0.0 2.7203 -0.037192 0.0 -0.008535
Ta 0.94648 2.34759 6.77133 -0.141158 0.0 0.065062
Ta 0.00117 0.0 8.1367 -0.005041 0.0 -0.535781
Ta 2.87637 0.0 8.1367 -0.005041 0.0 -0.535781
Ta 1.91123 0.0 5.41489 0.047966 0.0 0.052967
Ta 4.78644 0.0 5.41489 0.047966 0.0 0.052967
Ta 3.82169 2.34759 6.77133 -0.141158 0.0 0.065062
Ta 1.9168 2.34759 9.48769 -0.807767 0.0 -0.37656
Ta 4.79201 2.34759 9.48769 -0.807767 0.0 -0.37656
Ta 3.25739 0.0 10.83871 0.80662 0.0 0.413175
Ta 2.31209 2.34759 12.20409 0.049763 0.0 0.478936
Ta 5.18729 2.34759 12.20409 0.049763 0.0 0.478936
Ta 0.38219 0.0 10.83871 0.80662 0.0 0.413175
Ta 3.25129 2.34759 14.90296 -0.059966 0.0 -0.070617
Ta 2.26936 0.0 16.25507 -0.058332 0.0 -0.070148
Ta 5.14456 0.0 16.25507 -0.058332 0.0 -0.070148
Ta 4.26294 2.34759 17.64762 0.034688 0.0 0.021628
Ta 1.38774 2.34759 17.64762 0.034688 0.0 0.021628
Ta 4.22253 0.0 13.56045 0.107399 0.0 -0.061704
Ta 1.34733 0.0 13.56045 0.107399 0.0 -0.061704
Ta 0.37609 2.34759 14.90296 -0.059966 0.0 -0.070617
Ta 3.0786 0.0 18.79091 0.01278 0.0 0.037448
Ta 0.2034 0.0 18.79091 0.01278 0.0 0.037448
30
Lattice = "5.75041007996 0.0 0.0 0.0 4.69518995285 0.0 0.0 0.0 39.8400001526" Properties=species:S:1:pos:R:3:forces:R:3 energy=-345.111657 stress="-8100.32 0.0 -1129.41 0.0 -4564.69 0.0 -1129.41 0.0 8777.64"
Ta 0.9892 0.0 2.7203 -0.002999 0.0 0.02667
Ta 0.00727 2.34759 4.07239 0.054882 0.0 0.061699
Ta 2.88247 2.34759 4.07239 0.054882 0.0 0.061699
Ta 0.17997 0.0 0.18449 -0.00101 0.0 -0.031388
Ta 3.05517 0.0 0.18449 -0.00101 0.0 -0.031388
Ta 1.87083 2.34759 1.32776 0.002281 0.0 -0.002797
Ta 4.74604 2.34759 1.32776 0.002281 0.0 -0.002797
Ta 3.86441 0.0 2.7203 -0.002999 0.0 0.02667
Ta 0.94648 2.34759 6.77133 -0.115569 0.0 0.063165
Ta 0.00117 0.0 8.1367 0.538925 0.0 -0.581219
Ta 2.87637 0.0 8.1367 0.538925 0.0 -0.581219
Ta 1.91123 0.0 5.41489 -0.062838 0.0 0.038873
Ta 4.78644 0.0 5.41489 -0.062838 0.0 0.038873
Ta 3.82169 2.34759 6.77133 -0.115569 0.0 0.063165
Ta 1.9168 2.34759 9.48769 -0.888421 0.0 -1.156719
Ta 4.79201 2.34759 9.48769 -0.888421 0.0 -1.156719
Ta 2.68235 0.0 10.83871 0.933927 0.0 1.205226
Ta 1.73705 2.34759 12.20409 -0.549392 0.0 0.428428
Ta 4.61225 2.34759 12.20409 -0.549392 0.0 0.428428
Ta 5.55756 0.0 10.83871 0.933927 0.0 1.205226
Ta 2.67625 2.34759 14.90296 0.046884 0.0 -0.018316
Ta 1.69432 0.0 16.25507 -0.058853 0.0 -0.140323
Ta 4.56952 0.0 16.25507 -0.058853 0.0 -0.140323
Ta 3.6879 2.34759 17.64762 0.020235 0.0 0.058633
Ta 0.8127 2.34759 17.64762 0.020235 0.0 0.058633
Ta 3.64749 0.0 13.56045 0.091771 0.0 -0.007909
Ta 0.77229 0.0 13.56045 0.091771 0.0 -0.007909
Ta 5.55146 2.34759 14.90296 0.046884 0.0 -0.018316
Ta 2.50356 0.0 18.79091 -0.009823 0.0 0.055977
Ta 5.37876 0.0 18.79091 -0.009823 0.0 0.055977
30
Lattice = "5.75041007996 0.0 0.0 0.0 4.69518995285 0.0 0.0 0.0 39.8400001526" Properties=species:S:1:pos:R:3:forces:R:3 energy=-346.367123 stress="-9925.11 0.0 -4252.58 0.0 -9690.35 0.0 -4252.58 0.0 528.8000000000001"
Ta 0.9892 0.0 2.7203 0.036893 0.0 0.011121
Ta 0.00727 2.34759 4.07239 0.003739 0.0 -0.008403
Ta 2.88247 2.34759 4.07239 0.003739 0.0 -0.008403
Ta 0.17997 0.0 0.18449 0.001677 0.0 -0.008529
Ta 3.05517 0.0 0.18449 0.001677 0.0 -0.008529
Ta 1.87083 2.34759 1.32776 -0.006125 0.0 -0.007305
Ta 4.74604 2.34759 1.32776 -0.006125 0.0 -0.007305
Ta 3.86441 0.0 2.7203 0.036893 0.0 0.011121
Ta 0.94648 2.34759 6.77133 0.047105 0.0 -0.045187
Ta 0.00117 0.0 8.1367 0.149771 0.0 0.043481
Ta 2.87637 0.0 8.1367 0.149771 0.0 0.043481
Ta 1.91123 0.0 5.41489 -0.082659 0.0 0.037224
Ta 4.78644 0.0 5.41489 -0.082659 0.0 0.037224
Ta 3.82169 2.34759 6.77133 0.047105 0.0 -0.045187
Ta 1.9168 2.34759 9.48769 0.609504 0.0 -0.160261
Ta 4.79201 2.34759 9.48769 0.609504 0.0 -0.160261
Ta 1.24475 0.0 10.83871 -0.628777 0.0 0.151816
Ta 0.29944 2.34759 12.20409 -0.151337 0.0 -0.040462
Ta 3.17464 2.34759 12.20409 -0.151337 0.0 -0.040462
Ta 4.11996 0.0 10.83871 -0.628777 0.0 0.151816
Ta 1.23865 2.34759 14.90296 0.077509 0.0 -0.040594
Ta 0.25672 0.0 16.25507 0.005483 0.0 -0.00975
Ta 3.13192 0.0 16.25507 0.005483 0.0 -0.00975
Ta 2.25029 2.34759 17.64762 -0.026269 0.0 0.012323
Ta 5.1255 2.34759 17.64762 -0.026269 0.0 0.012323
Ta 2.20989 0.0 13.56045 -0.027306 0.0 0.063713
Ta 5.0851 0.0 13.56045 -0.027306 0.0 0.063713
Ta 4.11386 2.34759 14.90296 0.077509 0.0 -0.040594
Ta 1.06595 0.0 18.79091 -0.009208 0.0 0.000812
Ta 3.94116 0.0 18.79091 -0.009208 0.0 0.000812
30
Lattice = "5.75041007996 0.0 0.0 0.0 4.69518995285 0.0 0.0 0.0 39.8400001526" Properties=species:S:1:pos:R:3:forces:R:3 energy=-346.582565 stress="-9596.72 0.0 -296.27 0.0 -12032.57 0.0 -296.27 0.0 -26.450000000000003"
Ta 0.9892 0.0 2.71997 0.001254 0.0 -0.000998
Ta 0.00727 2.34759 4.07216 0.002375 0.0 -0.000846
Ta 2.88247 2.34759 4.07216 0.002375 0.0 -0.000846
Ta 0.17997 0.0 0.18409 0.004062 0.0 -0.001188
Ta 3.05517 0.0 0.18409 0.004062 0.0 -0.001188
Ta 1.87083 2.34759 1.32736 -0.001515 0.0 -0.001063
Ta 4.74604 2.34759 1.32736 -0.001515 0.0 -0.001063
Ta 3.86441 0.0 2.71997 0.001254 0.0 -0.000998
Ta 0.94648 2.34759 6.77121 -0.000474 0.0 -0.000276
Ta 0.00117 0.0 8.13671 0.001992 0.0 -0.000431
Ta 2.87637 0.0 8.13671 0.001992 0.0 -0.000431
Ta 1.91123 0.0 5.41479 0.001951 0.0 -0.000915
Ta 4.78644 0.0 5.41479 0.001951 0.0 -0.000915
Ta 3.82169 2.34759 6.77121 -0.000474 0.0 -0.000276
Ta 1.9168 2.34759 9.48769 0.0 0.0 0.0
Ta 4.79201 2.34759 9.48769 0.0 0.0 0.0
Ta 0.95723 0.0 10.8387 -0.001992 0.0 0.000431
Ta 0.01192 2.34759 12.20421 0.000474 0.0 0.000276
Ta 2.88712 2.34759 12.20421 0.000474 0.0 0.000276
Ta 3.83244 0.0 10.8387 -0.001992 0.0 0.000431
Ta 0.95113 2.34759 14.90319 -0.002375 0.0 0.000846
Ta 5.71961 0.0 16.2554 -0.001254 0.0 0.000998
Ta 2.8444 0.0 16.2554 -0.001254 0.0 0.000998
Ta 1.96277 2.34759 17.64802 0.001515 0.0 0.001063
Ta 4.83798 2.34759 17.64802 0.001515 0.0 0.001063
Ta 1.92237 0.0 13.56055 -0.001951 0.0 0.000915
Ta 4.79758 0.0 13.56055 -0.001951 0.0 0.000915
Ta 3.82634 2.34759 14.90319 -0.002375 0.0 0.000846
Ta 0.77843 0.0 18.79131 -0.004062 0.0 0.001188
Ta 3.65364 0.0 18.79131 -0.004062 0.0 0.001188
30
Lattice = "5.75041007996 0.0 0.0 0.0 4.69518995285 0.0 0.0 0.0 39.8400001526" Properties=species:S:1:pos:R:3:forces:R:3 energy=-344.91356 stress="-9331.87 0.0 -3483.6 0.0 -3070.65 0.0 -3483.6 0.0 10023.91"
Ta 0.9892 0.0 2.7203 0.020761 0.0 0.069829
Ta 0.00727 2.34759 4.07239 0.031416 0.0 0.042888
Ta 2.88247 2.34759 4.07239 0.031416 0.0 0.042888
Ta 0.17997 0.0 0.18449 0.008231 0.0 -0.040672
Ta 3.05517 0.0 0.18449 0.008231 0.0 -0.040672
Ta 1.87083 2.34759 1.32776 -0.006968 0.0 -0.013357
Ta 4.74604 2.34759 1.32776 -0.006968 0.0 -0.013357
Ta 3.86441 0.0 2.7203 0.020761 0.0 0.069829
Ta 0.94648 2.34759 6.77133 -0.012614 0.0 0.0322
Ta 0.00117 0.0 8.1367 0.6286 0.0 -0.362527
Ta 2.87637 0.0 8.1367 0.6286 0.0 -0.362527
Ta 1.91123 0.0 5.41489 -0.117602 0.0 -0.047411
Ta 4.78644 0.0 5.41489 -0.117602 0.0 -0.047411
Ta 3.82169 2.34759 6.77133 -0.012614 0.0 0.0322
Ta 1.9168 2.34759 9.48769 -0.731669 0.0 -1.341165
Ta 4.79201 2.34759 9.48769 -0.731669 0.0 -1.341165
Ta 2.39483 0.0 10.83871 0.796655 0.0 1.335154
Ta 1.44952 2.34759 12.20409 -0.719661 0.0 0.218469
Ta 4.32472 2.34759 12.20409 -0.719661 0.0 0.218469
Ta 5.27004 0.0 10.83871 0.796655 0.0 1.335154
Ta 2.38873 2.34759 14.90296 0.115505 0.0 0.057838
Ta 1.4068 0.0 16.25507 -0.048364 0.0 -0.136512
Ta 4.282 0.0 16.25507 -0.048364 0.0 -0.136512
Ta 3.40038 2.34759 17.64762 0.008342 0.0 0.049918
Ta 0.52518 2.34759 17.64762 0.008342 0.0 0.049918
Ta 3.35997 0.0 13.56045 0.043395 0.0 0.085984
Ta 0.48477 0.0 13.56045 0.043395 0.0 0.085984
Ta 5.26394 2.34759 14.90296 0.115505 0.0 0.057838
Ta 2.21604 0.0 18.79091 -0.016029 0.0 0.049364
Ta 5.09124 0.0 18.79091 -0.016029 0.0 0.049364
30
Lattice = "5.75041007996 0.0 0.0 0.0 4.69518995285 0.0 0.0 0.0 39.8400001526" Properties=species:S:1:pos:R:3:forces:R:3 energy=-345.836703 stress="-13121.27 0.0 -5634.91 0.0 -8850.33 0.0 -5634.91 0.0 -251.82"
Ta 0.9892 0.0 2.69946 0.050014 0.0 0.000282
Ta 0.00727 2.34759 4.05025 0.000899 0.0 -0.000628
Ta 2.88247 2.34759 4.05025 0.000899 0.0 -0.000628
Ta 0.17997 0.0 0.16024 0.025286 0.0 -0.000329
Ta 3.05517 0.0 0.16024 0.025286 0.0 -0.000329
Ta 1.87083 2.34759 1.30033 -0.022784 0.0 0.0001
Ta 4.74604 2.34759 1.30033 -0.022784 0.0 0.0001
Ta 3.86441 0.0 2.69946 0.050014 0.0 0.000282
Ta 0.94648 2.34759 6.74132 0.018982 0.0 0.000803
Ta 0.00117 0.0 8.1136 0.294678 0.0 -7e-05
Ta 2.87637 0.0 8.1136 0.294678 0.0 -7e-05
Ta 1.91123 0.0 5.39201 -0.117735 0.0 -0.000184
Ta 4.78644 0.0 5.39201 -0.117735 0.0 -0.000184
Ta 3.82169 2.34759 6.74132 0.018982 0.0 0.000803
Ta 1.9168 2.34759 9.44202 0.717113 0.0 3.7e-05
Ta 4.79201 2.34759 9.44202 0.717113 0.0 3.7e-05
Ta 1.53227 0.0 10.88381 -0.754498 0.0 3.7e-05
Ta 0.58696 2.34759 12.229 -0.304417 0.0 -0.000673
Ta 3.46216 2.34759 12.229 -0.304417 0.0 -0.000673
Ta 4.40748 0.0 10.88381 -0.754498 0.0 3.7e-05
Ta 1.52617 2.34759 14.92821 0.111991 0.0 0.000677
Ta 0.54424 0.0 16.27854 0.000794 0.0 -0.00097
Ta 3.41944 0.0 16.27854 0.000794 0.0 -0.00097
Ta 2.53781 2.34759 17.67931 -0.020042 0.0 -0.001378
Ta 5.41302 2.34759 17.67931 -0.020042 0.0 -0.001378
Ta 2.49741 0.0 13.59913 0.010142 0.0 0.001166
Ta 5.37262 0.0 13.59913 0.010142 0.0 0.001166
Ta 4.40138 2.34759 14.92821 0.111991 0.0 0.000677
Ta 1.35347 0.0 18.81813 -0.010421 0.0 0.001129
Ta 4.22868 0.0 18.81813 -0.010421 0.0 0.001129
30
Lattice = "5.75041007996 0.0 0.0 0.0 4.69518995285 0.0 0.0 0.0 39.8400001526" Properties=species:S:1:pos:R:3:forces:R:3 energy=-344.984307 stress="-10564.03 0.0 -4829.4 0.0 -2612.55 0.0 -4829.4 0.0 9464.02"
Ta 0.9892 0.0 2.7203 0.037412 0.0 0.099042
Ta 0.00727 2.34759 4.07239 0.028536 0.0 0.023468
Ta 2.88247 2.34759 4.07239 0.028536 0.0 0.023468
Ta 0.17997 0.0 0.18449 0.023555 0.0 -0.042618
Ta 3.05517 0.0 0.18449 0.023555 0.0 -0.042618
Ta 1.87083 2.34759 1.32776 -0.016108 0.0 -0.021017
Ta 4.74604 2.34759 1.32776 -0.016108 0.0 -0.021017
Ta 3.86441 0.0 2.7203 0.037412 0.0 0.099042
Ta 0.94648 2.34759 6.77133 0.046477 0.0 0.002765
Ta 0.00117 0.0 8.1367 0.514609 0.0 -0.283847
Ta 2.87637 0.0 8.1367 0.514609 0.0 -0.283847
Ta 1.91123 0.0 5.41489 -0.163272 0.0 -0.078622
Ta 4.78644 0.0 5.41489 -0.163272 0.0 -0.078622
Ta 3.82169 2.34759 6.77133 0.046477 0.0 0.002765
Ta 1.9168 2.34759 9.48769 -0.094634 0.0 -1.114901
Ta 4.79201 2.34759 9.48769 -0.094634 0.0 -1.114901
Ta 2.10731 0.0 10.83871 0.096153 0.0 1.054366
Ta 1.162 2.34759 12.20409 -0.593943 0.0 0.202897
Ta 4.0372 2.34759 12.20409 -0.593943 0.0 0.202897
Ta 4.98252 0.0 10.83871 0.096153 0.0 1.054366
Ta 2.10121 2.34759 14.90296 0.169155 0.0 0.056551
Ta 1.11928 0.0 16.25507 -0.031734 0.0 -0.113985
Ta 3.99448 0.0 16.25507 -0.031734 0.0 -0.113985
Ta 3.11285 2.34759 17.64762 -0.01565 0.0 0.02811
Ta 0.23765 2.34759 17.64762 -0.01565 0.0 0.02811
Ta 3.07245 0.0 13.56045 0.006275 0.0 0.144107
Ta 0.19725 0.0 13.56045 0.006275 0.0 0.144107
Ta 4.97642 2.34759 14.90296 0.169155 0.0 0.056551
Ta 1.92851 0.0 18.79091 -0.00683 0.0 0.043685
Ta 4.80372 0.0 18.79091 -0.00683 0.0 0.043685
30
Lattice = "5.75041007996 0.0 0.0 0.0 4.69518995285 0.0 0.0 0.0 39.8400001526" Properties=species:S:1:pos:R:3:forces:R:3 energy=-346.393931 stress="-9438.37 0.0 3529.1 0.0 -11318.58 0.0 3529.1 0.0 1838.01"
Ta 0.9892 0.0 2.7203 -0.028288 0.0 -0.004272
Ta 0.00727 2.34759 4.07239 0.01665 0.0 0.029245
Ta 2.88247 2.34759 4.07239 0.01665 0.0 0.029245
Ta 0.17997 0.0 0.18449 0.006746 0.0 -0.001633
Ta 3.05517 0.0 0.18449 0.006746 0.0 -0.001633
Ta 1.87083 2.34759 1.32776 -0.000473 0.0 -3e-05
Ta 4.74604 2.34759 1.32776 -0.000473 0.0 -3e-05
Ta 3.86441 0.0 2.7203 -0.028288 0.0 -0.004272
Ta 0.94648 2.34759 6.77133 -0.081349 0.0 0.034571
Ta 0.00117 0.0 8.1367 -0.101274 0.0 -0.252924
Ta 2.87637 0.0 8.1367 -0.101274 0.0 -0.252924
Ta 1.91123 0.0 5.41489 0.063888 0.0 0.002877
Ta 4.78644 0.0 5.41489 0.063888 0.0 0.002877
Ta 3.82169 2.34759 6.77133 -0.081349 0.0 0.034571
Ta 1.9168 2.34759 9.48769 -0.523826 0.0 -0.065241
Ta 4.79201 2.34759 9.48769 -0.523826 0.0 -0.065241
Ta 3.54491 0.0 10.83871 0.531471 0.0 0.075625
Ta 2.59961 2.34759 12.20409 0.108678 0.0 0.237898
Ta 5.47481 2.34759 12.20409 0.108678 0.0 0.237898
Ta 0.66971 0.0 10.83871 0.531471 0.0 0.075625
Ta 3.53881 2.34759 14.90296 -0.061771 0.0 -0.016484
Ta 2.55688 0.0 16.25507 -0.022115 0.0 -0.025346
Ta 5.43208 0.0 16.25507 -0.022115 0.0 -0.025346
Ta 4.55046 2.34759 17.64762 0.021554 0.0 0.004745
Ta 1.67526 2.34759 17.64762 0.021554 0.0 0.004745
Ta 4.51005 0.0 13.56045 0.060372 0.0 -0.032886
Ta 1.63485 0.0 13.56045 0.060372 0.0 -0.032886
Ta 0.66361 2.34759 14.90296 -0.061771 0.0 -0.016484
Ta 3.36612 0.0 18.79091 0.009737 0.0 0.013855
Ta 0.49092 0.0 18.79091 0.009737 0.0 0.013855
