100
Lattice = "12.6055002213 0.0 0.0 0.0 12.6055002213 0.0 0.0 0.0 12.6055002213" Properties=species:S:1:pos:R:3:forces:R:3 energy=-1105.601723 stress="41522.36 -10028.6 5843.19 -10028.6 44080.57 10402.62 5843.19 10402.62 34745.600000000006"
Ta 0.43107 3.74888 0.07776 -0.335192 0.399751 2.053897
Ta 1.60366 2.09108 2.35693 -3.868362 -1.228623 -1.515572
Ta 4.15329 1.55338 2.45739 1.505017 -0.176525 -0.218711
Ta 2.64801 1.89114 12.39607 0.25781 1.51672 2.137521
Ta 7.24215 1.70209 1.79979 -0.11292 -2.198189 -0.337499
Ta 10.95446 2.67458 1.59213 -0.965217 -1.195646 -0.253554
Ta 9.27673 0.87789 3.43116 1.643765 0.347467 -1.593945
Ta 2.03607 6.61594 1.61137 2.535752 0.592029 1.82052
Ta 5.49317 3.20146 0.58262 -0.862046 0.984883 -1.598913
Ta 3.04231 4.31908 2.00353 0.620511 -1.092947 -1.508929
Ta 4.95339 6.14708 0.65118 -1.365205 -2.865106 2.363303
Ta 7.52643 4.18623 2.31722 0.746021 1.167867 -1.110257
Ta 12.27295 5.1198 2.52809 0.765074 0.812857 1.098129
Ta 9.25719 7.32072 1.58199 0.215508 0.987987 1.690552
Ta 10.53635 5.29937 0.6285 -0.28915 -1.601915 -1.639854
Ta 1.90384 9.1638 3.00286 0.22302 2.303078 2.48401
Ta 3.80372 8.76382 0.84403 -1.139535 0.518969 0.980714
Ta 6.20544 8.3316 1.50988 2.193636 0.909931 -1.013726
Ta 8.06784 5.83681 12.25104 -1.350407 0.626007 -0.379155
Ta 0.31897 6.90336 0.10643 -5.3666 -0.250563 -1.141097
Ta 11.55436 9.51362 3.34931 0.547949 -2.202531 -1.917224
Ta 10.78092 9.16961 0.43619 2.93789 -2.957858 -2.910142
Ta 1.24862 9.5832 0.57435 -1.713064 -0.323209 -1.423673
Ta 5.81406 11.77176 1.54406 1.638754 0.219842 1.61986
Ta 10.13103 11.22875 1.38321 -1.800705 4.539384 2.649159
Ta 0.34899 0.35649 6.1042 -1.407332 -2.793672 0.622672
Ta 2.3232 1.67801 4.77877 -0.05644 2.09227 -0.734316
Ta 7.49734 2.52339 4.64715 -2.007496 -0.115682 0.14042
Ta 9.77964 2.17772 5.83529 3.713057 -1.608783 0.411426
Ta 12.08877 2.91076 4.07847 -1.520526 -1.704707 -0.587973
Ta 1.76078 4.6877 4.47668 1.413545 -7.499735 -1.858957
Ta 4.98999 4.11433 3.79876 0.289553 -1.316969 -0.292034
Ta 6.76353 5.11499 5.45587 -3.138755 0.635253 -4.508867
Ta 8.18843 6.66761 6.69958 1.823722 2.515733 1.945463
Ta 9.26522 5.32398 3.90117 2.522311 -2.914637 0.434012
Ta 11.70087 5.41848 5.49634 -0.91363 0.599933 0.511554
Ta 1.65165 6.89091 4.56552 -4.64308 7.078545 2.907672
Ta 3.88906 7.3482 3.69272 4.376913 -1.607122 -3.387251
Ta 3.78056 9.22669 5.62637 -1.173755 -0.484115 1.473183
Ta 7.2778 6.86119 3.31305 -1.712746 -0.762926 0.612453
Ta 8.43315 9.5977 2.96474 -0.068906 0.588767 0.305611
Ta 8.32391 9.49805 7.04669 1.283119 0.857479 -0.056213
Ta 9.74646 7.68415 4.88166 1.553537 2.838279 -1.262714
Ta 0.20242 11.9595 3.59124 0.480807 0.704331 -0.139582
Ta 0.92234 9.81536 5.6286 -0.676685 -0.718246 -1.353345
Ta 2.97319 11.83837 4.92159 0.124172 -2.5278 -0.825427
Ta 4.81042 10.11638 3.25804 -0.00158 0.832634 1.353808
Ta 5.10938 0.86525 4.93901 1.123663 0.063599 1.236154
Ta 7.61412 11.73973 4.74754 -0.814736 -0.047356 -0.545511
Ta 10.33697 11.30643 4.67815 -0.528432 -0.050872 2.228917
Ta 0.27884 2.84477 6.49144 0.360201 1.903395 2.778998
Ta 2.01197 0.93667 8.3625 1.378708 0.191326 -1.606266
Ta 5.95649 1.56866 7.7316 -3.530422 2.114153 0.082888
Ta 7.99571 0.37668 7.3238 3.086708 -0.94535 -1.566298
Ta 9.75758 2.05273 9.00324 -1.78926 -0.869367 -0.765594
Ta 7.0553 1.30554 10.35383 -0.468981 0.451781 -0.424135
Ta 3.31072 3.02847 6.68212 2.374838 -0.044278 1.652536
Ta 1.94786 5.25704 7.02637 -4.869392 -0.604143 3.206895
Ta 5.58301 4.41656 7.69055 -0.012085 -1.275371 2.405145
Ta 8.49696 4.09995 6.94038 1.731209 -2.887879 -0.17644
Ta 11.05285 4.3866 7.9546 0.367601 1.162168 1.374681
Ta 0.98645 7.70557 8.0109 1.110298 0.078167 -0.561606
Ta 4.08075 5.84992 6.03442 1.908693 2.469334 -1.250813
Ta 6.48069 8.76967 5.22823 0.114255 -0.523517 -0.733113
Ta 3.57803 8.81681 8.5928 -0.66732 -1.171187 1.154754
Ta 7.84056 7.36674 9.41266 2.673183 -2.160921 0.812097
Ta 5.68236 7.53635 7.81446 0.283447 -0.99061 -1.738751
Ta 10.93798 7.78281 7.44991 -0.183664 0.008309 0.251959
Ta 9.9392 9.29803 9.66467 -1.179107 -2.844565 -1.936143
Ta 3.27502 11.20914 7.71694 -1.605014 0.866048 -1.920371
Ta 5.80571 11.2039 6.87956 0.570374 -0.917997 -1.21799
Ta 6.62643 9.54017 9.251 -2.194588 1.730297 1.398058
Ta 8.37506 11.43578 9.44763 -1.003205 1.254061 1.409533
Ta 10.64763 11.60302 8.34425 0.22912 1.878017 -4.253745
Ta 0.62444 10.81341 7.95926 -0.845854 -0.025244 3.548273
Ta 1.3128 0.0772 10.94202 1.021441 -1.772357 0.971535
Ta 3.66982 2.58827 9.88588 2.775855 -0.901529 -1.133165
Ta 4.9029 0.55814 12.14694 0.745195 -0.14623 -0.925343
Ta 10.71412 0.70352 12.01211 -0.821757 1.855819 -0.172903
Ta 0.09616 11.95074 0.94667 -0.073589 1.703385 -0.8464
Ta 12.24445 1.18229 9.52752 -4.911344 -2.238124 -2.990827
Ta 0.56652 5.73639 10.25403 -1.285215 0.56972 -1.80217
Ta 1.04406 2.95713 10.2879 0.54537 1.767964 -1.435358
Ta 2.78879 4.62903 11.50554 1.816283 1.761154 1.997143
Ta 3.64576 5.81754 9.10448 -0.291727 0.525333 1.415918
Ta 6.14975 4.49268 10.80918 -3.938361 -1.263146 1.537617
Ta 8.46844 3.03493 11.91111 -0.260212 -0.549013 1.590318
Ta 7.95371 4.47804 9.32882 3.486802 -0.184534 -0.465321
Ta 10.60265 3.91791 10.65025 1.584639 0.666232 1.28596
Ta 2.41835 7.66344 11.35717 3.582823 -2.530851 -1.921205
Ta 5.6897 7.16124 11.11328 -0.724382 2.649569 -1.819833
Ta 8.24854 8.99729 11.81822 -0.58882 -1.012186 0.957519
Ta 10.50201 6.92143 10.75604 -0.179214 -0.360035 0.514513
Ta 0.20749 8.75375 10.46189 -1.586508 0.42554 -0.709369
Ta 2.55072 10.18804 10.88287 1.336488 2.096133 -1.047152
Ta 4.96405 12.00073 9.46535 1.226786 1.399389 2.14847
Ta 2.9582 11.89523 1.24555 -0.497007 -1.084677 0.372878
Ta 5.43899 10.20671 12.04447 0.457816 0.156284 -2.53866
Ta 7.88861 11.67933 12.19294 -0.209863 1.614617 -0.260277
Ta 11.22489 11.04751 10.7648 2.246152 1.517056 4.384995
100
Lattice = "12.6055002213 0.0 0.0 0.0 12.6055002213 0.0 0.0 0.0 12.6055002213" Properties=species:S:1:pos:R:3:forces:R:3 energy=-1099.673012 stress="64329.38 4705.339999999999 16428.34 4705.339999999999 41963.4 -4448.86 16428.34 -4448.86 54142.01"
Ta 0.38188 4.35838 0.74564 -0.727255 -2.684915 -1.502186
Ta 1.34891 1.23814 1.97516 -0.901556 -0.105425 1.00657
Ta 3.91629 1.3428 2.33074 3.786054 2.848263 -0.971111
Ta 2.50882 2.14034 12.20579 -0.262289 0.109978 0.538412
Ta 8.20217 1.50457 1.09255 -0.492384 -1.785903 2.601547
Ta 10.36593 3.31163 1.41537 1.881298 -2.609227 -1.324217
Ta 10.4022 0.62792 3.78647 -0.90696 3.879838 -1.72804
Ta 1.89782 6.78766 2.24739 0.610213 0.257066 0.30111
Ta 5.50184 3.35273 0.83641 -0.560965 -1.138714 0.441504
Ta 2.32284 3.6359 2.17719 2.602499 1.961671 1.752727
Ta 5.3072 5.9129 1.35024 -1.807728 1.348974 1.869601
Ta 7.97916 4.52402 2.2256 -1.448678 0.224978 0.932881
Ta 12.08411 5.36653 3.17826 1.407869 -0.153369 -2.235907
Ta 9.93622 6.94867 2.71342 -0.96168 -0.819272 -0.695758
Ta 9.90617 5.56065 0.39246 1.437756 2.22277 -1.483484
Ta 2.03145 9.47094 3.47002 -0.365866 -1.501921 0.223241
Ta 3.89512 9.09235 1.57401 -0.289378 -1.595243 -0.704364
Ta 6.55755 9.06145 1.13007 1.481441 -1.964278 0.317382
Ta 7.19441 5.95163 12.15045 5.313352 -0.388306 3.350518
Ta 0.47731 6.73144 12.49172 -2.324959 2.468907 0.162569
Ta 11.99106 8.65573 2.136 0.320078 0.329798 0.427882
Ta 10.46579 8.3526 12.36863 0.469025 0.961865 1.106144
Ta 1.09582 9.74623 0.42674 -0.367347 0.331195 0.683008
Ta 6.08716 11.81081 1.97743 -0.347952 0.939564 0.150091
Ta 10.03534 11.67059 1.4824 1.765295 -0.063423 0.419687
Ta 0.08024 12.16929 6.35254 3.013201 1.559359 -1.565584
Ta 2.71663 1.31896 5.17141 1.289295 0.727934 -0.294145
Ta 7.31848 1.89673 4.23838 -0.731578 2.730215 -0.825462
Ta 10.8977 1.28949 6.47917 -5.83876 3.773198 -2.47763
Ta 0.45432 2.51989 4.22159 -3.64939 -0.925817 -2.950598
Ta 1.70947 4.66775 4.8384 0.462076 1.170048 -2.403113
Ta 4.57205 3.37193 4.25893 -0.109762 0.615399 0.386449
Ta 6.6353 4.9693 5.07404 -0.677674 0.753118 -0.691499
Ta 9.08878 7.33531 5.79768 -1.926322 -3.675185 0.927457
Ta 9.91121 3.22337 3.84582 -0.878305 0.821935 2.646587
Ta 11.32221 4.97359 5.54846 -1.015803 -0.259629 1.700732
Ta 0.53406 7.05513 5.42905 4.213154 0.915513 -0.387097
Ta 4.46164 6.80136 4.09833 -0.176562 -0.533475 -2.129646
Ta 3.93041 8.596 5.90044 -2.349383 1.463451 1.214532
Ta 7.45709 7.32471 3.28984 -1.580622 -0.59473 -0.153408
Ta 8.73043 9.80728 2.84372 -0.269419 -1.581451 0.380496
Ta 8.3667 9.63065 6.92756 1.753511 2.485611 1.143484
Ta 11.10448 8.19971 4.67383 -2.984282 1.041303 -1.700702
Ta 12.33138 11.59365 3.22318 2.360024 -1.006585 -0.789645
Ta 12.53349 9.89403 5.63928 3.735451 -1.567194 1.41596
Ta 3.05157 11.96433 3.46769 -2.586656 -4.605553 1.003837
Ta 5.53812 9.74587 3.73544 -0.624627 0.711032 0.321477
Ta 5.17764 0.08755 4.56072 0.792806 1.090161 2.480897
Ta 7.64882 11.92872 4.33422 1.371203 -2.646937 -1.592811
Ta 10.26273 11.13472 4.99862 -1.516508 -2.562682 1.139746
Ta 0.63147 2.19678 6.67724 -1.933442 4.953146 -0.194708
Ta 2.39775 1.15536 7.89766 1.566886 -5.944045 0.931194
Ta 5.33276 1.28983 7.19797 -1.126761 0.854886 -2.020746
Ta 7.89352 0.43228 6.56287 1.13823 0.267818 2.364431
Ta 8.88305 1.54913 9.09168 1.934009 3.681926 -0.69568
Ta 6.00124 2.16677 9.5598 8.252345 -1.117748 2.215338
Ta 2.66739 3.83317 7.06559 2.190193 -4.842621 2.418064
Ta 0.44413 5.53507 7.53921 0.172202 -0.843263 -0.144565
Ta 6.07444 4.29758 7.92983 -1.04507 0.569502 -0.853121
Ta 8.61236 4.26866 6.45192 0.842947 -0.703065 0.93539
Ta 10.50987 4.11989 8.35507 0.547985 -0.173489 -1.269773
Ta 2.02897 8.56787 8.24972 -1.223362 -0.887987 -0.332769
Ta 3.57963 5.79304 6.48017 2.842291 5.01202 -1.423259
Ta 6.53156 8.37515 5.75214 -0.50131 -0.78674 -2.188556
Ta 4.51454 9.02305 9.28712 -1.887242 0.583318 -0.321074
Ta 8.34047 6.94108 8.77392 2.702214 0.628662 0.365051
Ta 6.01989 7.16828 7.91506 -2.736883 -1.03701 0.87708
Ta 11.52313 8.08118 8.00297 0.861961 -0.750437 -2.832105
Ta 9.87066 9.68884 9.34964 -0.418705 -1.344113 0.080437
Ta 2.69897 11.01376 6.90606 0.624985 0.222953 -0.025436
Ta 5.56553 10.9604 7.05448 1.478972 -0.881736 -1.62077
Ta 6.91858 9.87487 9.3601 -0.933279 -1.508382 -2.062547
Ta 7.56671 12.23671 9.78063 -0.406385 -0.308972 0.183521
Ta 10.22294 11.87342 7.79903 -1.175658 -1.688479 1.642029
Ta 0.04509 10.83657 8.74612 1.380926 -0.290325 -0.323702
Ta 0.94632 0.06721 10.62363 1.061812 0.946373 0.815892
Ta 3.83384 2.56871 9.64718 -1.450486 1.088741 1.78581
Ta 4.91898 0.74942 12.23402 2.069575 0.652415 -1.682263
Ta 10.35682 1.29618 11.60881 -1.007516 -0.380767 -0.681798
Ta 12.25089 0.25724 0.5674 -1.167993 -0.553636 -1.082113
Ta 12.05792 1.27062 8.79257 -1.958821 -0.199606 3.512891
Ta 0.94154 6.36726 9.79464 -0.470327 -1.562595 2.388469
Ta 1.55131 2.94376 9.49017 -5.482202 3.713318 2.157258
Ta 2.83736 5.28335 12.23429 0.21999 -0.856343 -0.328898
Ta 3.28912 5.72925 9.20121 2.590913 0.102617 0.278337
Ta 5.23966 4.63128 11.01018 -0.510883 -1.107745 -0.843113
Ta 8.09196 3.41706 12.13822 -0.502547 -2.144772 0.04882
Ta 8.1563 4.57839 10.05093 0.383882 0.414866 -3.808578
Ta 10.79442 4.02679 10.93553 1.752466 -1.881501 1.268269
Ta 2.71931 8.02403 11.22143 2.049893 -0.963189 1.387113
Ta 5.73731 7.44013 11.32002 -4.676222 3.883048 -2.762461
Ta 8.16217 8.96831 11.31638 0.374044 -1.476354 1.757164
Ta 10.92094 6.50569 10.08481 -2.942535 0.663572 0.583517
Ta 0.13295 8.72748 10.50938 -1.244418 2.69593 0.1167
Ta 2.76073 10.72733 11.03757 0.159817 -0.598944 -1.675276
Ta 4.565 12.20225 9.16074 -0.475524 -0.325595 2.074182
Ta 3.333 11.65103 0.9196 -2.017399 0.539865 -1.533111
Ta 5.52052 10.58245 11.86999 -0.929433 -0.112136 -1.59182
Ta 7.97547 11.45742 0.05805 -0.0746 0.038856 -1.899211
Ta 11.12836 11.17255 11.09073 -0.284488 0.783851 1.570373
100
Lattice = "12.6055002213 0.0 0.0 0.0 12.6055002213 0.0 0.0 0.0 12.6055002213" Properties=species:S:1:pos:R:3:forces:R:3 energy=-1121.31506 stress="6315.33 3551.01 1290.84 3551.01 7373.36 -1793.4699999999998 1290.84 -1793.4699999999998 -4190.5599999999995"
Ta 0.64937 3.12625 0.43144 -0.384771 0.95129 0.165479
Ta 1.36715 0.72175 2.1191 -0.396084 1.361974 -0.172418
Ta 4.5846 1.15642 2.6142 -0.373595 0.78336 -1.848167
Ta 3.4656 2.34361 0.38597 -2.224767 -1.381119 -1.370954
Ta 7.88853 1.1719 1.55114 -0.598212 -0.078923 1.145428
Ta 10.07282 2.82479 1.63047 1.639511 -1.074148 -1.081096
Ta 10.53174 0.56802 2.94785 0.257895 1.267816 1.941643
Ta 2.10362 6.2679 1.6589 0.701345 0.454084 2.496936
Ta 5.6154 3.59317 1.03035 0.195919 -1.236583 -0.019497
Ta 3.32731 3.74082 2.62776 -1.283076 0.780111 0.884303
Ta 4.82978 6.12805 1.02771 1.04951 2.209193 2.462833
Ta 7.60239 4.46941 2.24663 1.036576 0.558243 2.859549
Ta 12.48993 4.97942 2.67215 -0.349711 -0.000505 0.40415
Ta 9.84709 6.20394 2.82647 -0.257749 1.429134 0.922074
Ta 10.38504 5.10677 0.57401 -0.209053 1.4898 -1.696587
Ta 2.12734 8.88431 2.41071 -0.896766 0.496609 1.485094
Ta 4.37717 9.21766 1.21522 -0.870196 -1.493612 0.07125
Ta 7.07182 9.00281 1.02655 0.183737 -1.129029 -0.559981
Ta 7.71788 6.33342 0.33272 -0.30082 1.581148 -1.075768
Ta 12.44465 6.65378 0.30277 0.556355 -0.191302 -1.493292
Ta 12.09046 8.23945 2.26765 -0.509885 1.361164 -0.650694
Ta 9.81566 8.34073 0.27729 0.6859 1.115843 0.637478
Ta 0.91684 11.16462 0.54206 0.073874 -1.819993 0.221407
Ta 5.69432 11.50075 1.29392 1.279331 1.42035 2.206812
Ta 10.71239 11.30092 1.18755 -0.759539 -2.842687 -0.44627
Ta 0.12647 0.57355 5.6744 1.485357 -0.339908 0.72473
Ta 2.40387 1.53268 4.75274 0.971096 -0.38073 0.869134
Ta 6.4354 2.09058 4.44464 1.8115 0.323829 -0.954613
Ta 10.29448 1.87908 6.14933 -0.973544 0.673823 0.524211
Ta 12.13409 2.64826 3.96133 1.041975 -0.146906 -0.101053
Ta 1.89139 4.2711 5.14514 -1.126257 1.765095 -1.172303
Ta 4.29285 3.26764 5.49838 1.359585 0.954058 -0.894642
Ta 6.22054 4.99782 4.76901 -0.57103 0.193676 0.659475
Ta 8.73015 5.75307 5.41647 0.977001 1.137808 0.707847
Ta 9.46292 3.6411 4.00924 0.208171 -0.619736 1.487252
Ta 11.80799 5.28602 5.31887 -1.14111 -1.708079 1.708749
Ta 1.42351 7.04153 5.51044 0.442962 1.999421 -1.932131
Ta 3.99608 6.77694 4.00068 0.020115 -0.082585 -0.562723
Ta 3.50684 9.23442 5.21977 0.277684 0.652346 0.809939
Ta 6.82787 7.1376 3.15953 0.461297 -1.023286 -0.200358
Ta 9.15017 9.16521 3.22539 0.975528 -0.406877 -2.361923
Ta 9.03229 9.22399 5.76536 -0.96211 0.660671 1.97306
Ta 11.42908 7.93297 4.71336 -1.075725 2.179405 -1.299081
Ta 0.05087 11.06881 3.63544 0.18806 -0.894103 -2.497085
Ta 0.61823 10.14934 5.99785 0.964288 -1.323025 0.615744
Ta 2.87244 11.55729 3.56061 -0.950735 -1.383789 -0.752604
Ta 6.21349 9.52465 3.78915 -1.000365 1.509307 0.554842
Ta 5.15602 12.31549 4.62675 0.565237 -0.704465 1.119632
Ta 8.08827 11.62648 3.35101 -0.339071 0.461047 0.284645
Ta 10.68985 11.76775 5.34052 -2.452377 -2.887406 0.054989
Ta 0.14268 2.96019 7.28952 -1.17741 0.302926 -1.013001
Ta 1.79625 1.2317 8.73242 1.145361 -3.820996 -0.45811
Ta 5.07039 1.39926 7.46358 -0.781338 0.724617 -1.541559
Ta 7.57216 0.49788 6.56353 0.962384 0.05587 -0.04513
Ta 9.27827 2.61852 8.92732 0.176007 -0.879678 -0.926458
Ta 6.54771 2.47044 9.38651 2.190569 0.166399 1.077573
Ta 2.76284 3.40149 7.77645 3.137421 -0.183358 -0.704336
Ta 1.46964 5.59388 7.81661 -3.887251 -0.228325 -0.342894
Ta 5.28247 4.64737 8.03918 0.338155 -1.923057 0.116762
Ta 7.44449 3.18893 6.73322 1.141594 1.207491 -0.292546
Ta 11.12935 5.21434 8.64857 -1.612825 -2.999306 -1.714386
Ta 1.54461 8.15093 8.61321 0.347763 2.086893 -0.257285
Ta 3.74639 6.51293 6.87702 0.959722 -0.501443 -1.452222
Ta 6.16432 8.04946 6.35417 0.023322 -2.311879 -2.364886
Ta 4.17774 8.81779 8.33178 -1.45671 1.390508 1.192928
Ta 8.79674 7.34098 7.76356 0.744674 0.017978 0.615727
Ta 6.3995 6.81915 8.95492 -2.56268 0.245528 -0.18037
Ta 11.65865 7.47829 7.15549 -0.141642 0.63044 2.199066
Ta 10.36878 9.3845 9.0403 -0.66872 0.230975 -0.20666
Ta 3.44367 12.01539 7.00233 -1.966426 -2.282219 -0.555493
Ta 6.18022 10.72879 6.38769 -0.159595 0.636574 0.422497
Ta 6.60979 9.53788 8.62428 1.893523 1.309962 1.811685
Ta 7.82809 11.91798 9.44419 -1.75495 0.501787 1.526707
Ta 9.83162 12.15132 7.88212 0.675577 0.0338 -0.256919
Ta 12.33473 11.37557 8.23941 1.476837 0.086277 1.652827
Ta 1.26867 0.5664 11.43089 0.552369 0.109749 -1.014297
Ta 4.11323 2.51574 10.31659 -0.216484 0.602173 -0.337403
Ta 6.1981 1.3171 12.07577 -0.840924 -1.268238 -1.122831
Ta 8.93316 0.96241 11.49866 0.200771 0.591493 -0.447815
Ta 11.51202 0.95161 12.55636 0.023759 0.436473 0.983974
Ta 11.74771 1.34839 9.48403 -0.672837 0.114932 -0.4313
Ta 0.37088 6.14613 10.23785 1.469982 0.175809 2.274858
Ta 1.53343 3.45239 10.16056 -2.401632 0.95373 1.427778
Ta 2.97984 4.88656 12.27482 -1.163376 -0.933805 -0.832442
Ta 3.23113 5.88226 9.89191 1.644345 0.515055 -2.001086
Ta 5.83202 4.76093 11.09154 -1.265112 -0.209543 -0.313576
Ta 8.18149 3.7694 12.32031 -0.908072 -2.871898 -1.645014
Ta 8.28389 5.18304 9.86813 1.06209 -0.729605 -0.590042
Ta 10.60165 3.38032 11.14631 2.294652 0.864636 -1.210164
Ta 2.16602 8.04842 12.06324 1.617599 0.103075 -0.814791
Ta 5.19763 7.5131 11.34985 -0.346409 1.752742 -0.487937
Ta 7.92875 8.24785 10.61624 0.728867 1.077493 1.692555
Ta 10.42049 6.95313 10.57826 -0.286476 0.160363 0.370268
Ta 12.38682 9.14199 11.43376 -0.594871 0.767297 -0.960584
Ta 2.2479 10.73902 9.80504 -0.028268 0.335889 0.421595
Ta 4.91854 12.45236 9.55661 -0.382663 -1.868957 -0.192626
Ta 3.60604 12.29562 12.33442 -0.6243 -0.490257 0.799831
Ta 5.45536 10.4337 11.30531 0.355343 -0.806764 -0.469902
Ta 8.0691 11.11452 12.46882 0.894574 0.749785 -0.70888
Ta 10.68626 11.50854 10.77779 0.440455 -1.251201 0.450872
