24
Lattice = "4.69519013405 0.0 0.0 0.0 3.32 0.0 0.0 0.0 53.12" Properties=species:S:1:pos:R:3:forces:R:3 energy=-279.911828 stress="-9651.84 0.0 0.0 0.0 -7622.87 0.0 0.0 0.0 -272.58"
Ta 2.34759 1.66 0.09121 0.0 0.0 0.001057
Ta 0.0 0.0 0.09121 0.0 0.0 0.001057
Ta 0.0 1.66 2.3361 0.0 0.0 0.000335
Ta 2.34759 0.0 2.3361 0.0 0.0 0.000335
Ta 2.34759 1.66 4.68536 0.0 0.0 0.000274
Ta 0.0 0.0 4.68536 0.0 0.0 0.000274
Ta 0.0 1.66 7.03392 0.0 0.0 0.000349
Ta 2.34759 0.0 7.03392 0.0 0.0 0.000349
Ta 2.34759 1.66 9.38594 0.0 0.0 -0.000481
Ta 0.0 0.0 9.38594 0.0 0.0 -0.000481
Ta 0.0 1.66 11.73648 0.0 0.0 -0.000487
Ta 2.34759 0.0 11.73648 0.0 0.0 -0.000487
Ta 2.34759 1.66 14.08712 0.0 0.0 0.000487
Ta 0.0 0.0 14.08712 0.0 0.0 0.000487
Ta 0.0 1.66 16.43764 0.0 0.0 0.000481
Ta 2.34759 0.0 16.43764 0.0 0.0 0.000481
Ta 2.34759 1.66 18.78966 0.0 0.0 -0.000349
Ta 0.0 0.0 18.78966 0.0 0.0 -0.000349
Ta 0.0 1.66 21.13823 0.0 0.0 -0.000274
Ta 2.34759 0.0 21.13823 0.0 0.0 -0.000274
Ta 2.34759 1.66 23.48739 0.0 0.0 -0.000335
Ta 0.0 0.0 23.48739 0.0 0.0 -0.000335
Ta 0.0 1.66 25.73229 0.0 0.0 -0.001057
Ta 2.34759 0.0 25.73229 0.0 0.0 -0.001057
48
Lattice = "6.64001325846 0.0 0.0 0.0 6.64001325846 0.0 0.0 0.0 39.84" Properties=species:S:1:pos:R:3:forces:R:3 energy=-555.359452 stress="-6438.73 0.0 0.0 0.0 -6438.73 0.0 0.0 0.0 -286.5"
Ta 1.66001 1.66 1.62137 0.0 0.0 -3e-05
Ta 0.0 0.0 0.17247 0.0 0.0 0.00038
Ta 1.66001 1.66 4.98756 0.0 0.0 0.000833
Ta 0.0 0.0 3.27999 0.0 0.0 0.000359
Ta 1.66001 1.66 8.28844 0.0 0.0 0.00041
Ta 0.0 0.0 6.62582 0.0 0.0 6.6e-05
Ta 1.66001 1.66 11.63419 0.0 0.0 -6.6e-05
Ta 0.0 0.0 9.97156 0.0 0.0 -0.00041
Ta 1.66001 1.66 14.98001 0.0 0.0 -0.000359
Ta 0.0 0.0 13.27244 0.0 0.0 -0.000833
Ta 1.66001 1.66 18.08753 0.0 0.0 -0.00038
Ta 0.0 0.0 16.63864 0.0 0.0 3e-05
Ta 1.66001 4.98001 1.62137 0.0 0.0 -3e-05
Ta 0.0 3.32001 0.17247 0.0 0.0 0.00038
Ta 1.66001 4.98001 4.98756 0.0 0.0 0.000833
Ta 0.0 3.32001 3.27999 0.0 0.0 0.000359
Ta 1.66001 4.98001 8.28844 0.0 0.0 0.00041
Ta 0.0 3.32001 6.62582 0.0 0.0 6.6e-05
Ta 1.66001 4.98001 11.63419 0.0 0.0 -6.6e-05
Ta 0.0 3.32001 9.97156 0.0 0.0 -0.00041
Ta 1.66001 4.98001 14.98001 0.0 0.0 -0.000359
Ta 0.0 3.32001 13.27244 0.0 0.0 -0.000833
Ta 1.66001 4.98001 18.08753 0.0 0.0 -0.00038
Ta 0.0 3.32001 16.63864 0.0 0.0 3e-05
Ta 4.98002 1.66 1.62137 0.0 0.0 -3e-05
Ta 3.32001 0.0 0.17247 0.0 0.0 0.00038
Ta 4.98002 1.66 4.98756 0.0 0.0 0.000833
Ta 3.32001 0.0 3.27999 0.0 0.0 0.000359
Ta 4.98002 1.66 8.28844 0.0 0.0 0.00041
Ta 3.32001 0.0 6.62582 0.0 0.0 6.6e-05
Ta 4.98002 1.66 11.63419 0.0 0.0 -6.6e-05
Ta 3.32001 0.0 9.97156 0.0 0.0 -0.00041
Ta 4.98002 1.66 14.98001 0.0 0.0 -0.000359
Ta 3.32001 0.0 13.27244 0.0 0.0 -0.000833
Ta 4.98002 1.66 18.08753 0.0 0.0 -0.00038
Ta 3.32001 0.0 16.63864 0.0 0.0 3e-05
Ta 4.98002 4.98001 1.62137 0.0 0.0 -3e-05
Ta 3.32001 3.32001 0.17247 0.0 0.0 0.00038
Ta 4.98002 4.98001 4.98756 0.0 0.0 0.000833
Ta 3.32001 3.32001 3.27999 0.0 0.0 0.000359
Ta 4.98002 4.98001 8.28844 0.0 0.0 0.00041
Ta 3.32001 3.32001 6.62582 0.0 0.0 6.6e-05
Ta 4.98002 4.98001 11.63419 0.0 0.0 -6.6e-05
Ta 3.32001 3.32001 9.97156 0.0 0.0 -0.00041
Ta 4.98002 4.98001 14.98001 0.0 0.0 -0.000359
Ta 3.32001 3.32001 13.27244 0.0 0.0 -0.000833
Ta 4.98002 4.98001 18.08753 0.0 0.0 -0.00038
Ta 3.32001 3.32001 16.63864 0.0 0.0 3e-05
40
Lattice = "4.69518993616 0.0 0.0 0.0 8.13231015027 0.0 0.0 0.0 36.52" Properties=species:S:1:pos:R:3:forces:R:3 energy=-459.216162 stress="-27041.87 0.0 0.0 0.0 -26744.41 19.599999999999998 0.0 19.599999999999998 -29530.539999999997"
Ta 2.34759 6.77692 0.9584 0.0 0.00104 0.266836
Ta 0.0 2.71077 0.9584 0.0 0.00104 0.266836
Ta 2.34759 4.06615 0.0 0.0 -0.000781 2.01398
Ta 2.34759 4.06615 2.8752 0.0 0.002127 -0.707743
Ta 0.0 5.42154 1.9168 0.0 -0.0035 -1.222398
Ta 2.34759 6.77692 3.83361 0.0 0.000551 -0.353108
Ta 0.0 0.0 0.0 0.0 -0.000781 2.01398
Ta 0.0 0.0 2.8752 0.0 0.002127 -0.707743
Ta 2.34759 1.35538 1.9168 0.0 -0.0035 -1.222398
Ta 0.0 2.71077 3.83361 0.0 0.000551 -0.353108
Ta 0.0 5.42154 4.79201 0.0 0.001693 -0.22097
Ta 2.34759 6.77692 6.70881 0.0 0.000422 -0.070866
Ta 2.34759 1.35538 4.79201 0.0 0.001693 -0.22097
Ta 0.0 2.71077 6.70881 0.0 0.000422 -0.070866
Ta 2.34759 4.06615 5.75041 0.0 -0.000841 0.251247
Ta 2.34759 4.06615 8.62561 0.0 -0.000554 0.023395
Ta 0.0 5.42154 7.66721 0.0 -0.000869 -0.03418
Ta 0.0 0.0 5.75041 0.0 -0.000841 0.251247
Ta 0.0 0.0 8.62561 0.0 -0.000554 0.023395
Ta 2.34759 1.35538 7.66721 0.0 -0.000869 -0.03418
Ta 0.0 5.42154 10.5424 0.0 0.000869 0.03418
Ta 2.34759 6.77692 9.58401 0.0 0.000554 -0.023395
Ta 2.34759 6.77692 12.4592 0.0 0.000841 -0.251247
Ta 2.34759 1.35538 10.5424 0.0 0.000869 0.03418
Ta 0.0 2.71077 9.58401 0.0 0.000554 -0.023395
Ta 0.0 2.71077 12.4592 0.0 0.000841 -0.251247
Ta 2.34759 4.06615 11.5008 0.0 -0.000422 0.070866
Ta 0.0 5.42154 13.4176 0.0 -0.001693 0.22097
Ta 0.0 0.0 11.5008 0.0 -0.000422 0.070866
Ta 2.34759 1.35538 13.4176 0.0 -0.001693 0.22097
Ta 2.34759 4.06615 14.376 0.0 -0.000551 0.353108
Ta 0.0 5.42154 16.2928 0.0 0.0035 1.222398
Ta 2.34759 6.77692 15.3344 0.0 -0.002127 0.707743
Ta 2.34759 6.77692 18.2096 0.0 0.000781 -2.01398
Ta 0.0 0.0 14.376 0.0 -0.000551 0.353108
Ta 2.34759 1.35538 16.2928 0.0 0.0035 1.222398
Ta 0.0 2.71077 15.3344 0.0 -0.002127 0.707743
Ta 0.0 2.71077 18.2096 0.0 0.000781 -2.01398
Ta 2.34759 4.06615 17.2512 0.0 -0.00104 -0.266836
Ta 0.0 0.0 17.2512 0.0 -0.00104 -0.266836
40
Lattice = "4.69518993616 0.0 0.0 0.0 8.13231015027 0.0 0.0 0.0 36.52" Properties=species:S:1:pos:R:3:forces:R:3 energy=-461.144076 stress="-6214.78 0.0 0.0 0.0 -6110.78 11.43 0.0 11.43 -124.44"
Ta 2.34759 6.77677 1.02996 0.0 4.9e-05 0.000956
Ta 0.0 2.71062 1.02996 0.0 4.9e-05 0.000956
Ta 2.34759 4.06617 0.30181 0.0 -0.000436 0.000304
Ta 2.34759 4.0661 2.9333 0.0 0.000405 -0.000621
Ta 0.0 5.42161 1.81457 0.0 -0.000256 -0.000454
Ta 2.34759 6.77673 3.82136 0.0 0.000483 0.001188
Ta 0.0 2e-05 0.30181 0.0 -0.000436 0.000304
Ta 0.0 8.13226 2.9333 0.0 0.000405 -0.000621
Ta 2.34759 1.35545 1.81457 0.0 -0.000256 -0.000454
Ta 0.0 2.71058 3.82136 0.0 0.000483 0.001188
Ta 0.0 5.42171 4.75865 0.0 -0.000286 3.9e-05
Ta 2.34759 6.77697 6.68474 0.0 0.000174 0.001115
Ta 2.34759 1.35555 4.75865 0.0 -0.000286 3.9e-05
Ta 0.0 2.71082 6.68474 0.0 0.000174 0.001115
Ta 2.34759 4.06631 5.76725 0.0 0.000154 -0.0006
Ta 2.34759 4.0661 8.64133 0.0 0.000311 0.000365
Ta 0.0 5.42175 7.66351 0.0 -0.000264 -0.00059
Ta 0.0 0.00016 5.76725 0.0 0.000154 -0.0006
Ta 0.0 -5e-05 8.64133 0.0 0.000311 0.000365
Ta 2.34759 1.35559 7.66351 0.0 -0.000264 -0.00059
Ta 0.0 5.42176 10.5454 0.0 -0.000164 0.000261
Ta 2.34759 6.77681 9.56856 0.0 0.000347 -0.001383
Ta 2.34759 6.77657 12.44226 0.0 0.000206 0.000791
Ta 2.34759 1.3556 10.5454 0.0 -0.000164 0.000261
Ta 0.0 2.71066 9.56856 0.0 0.000347 -0.001383
Ta 0.0 2.71042 12.44226 0.0 0.000206 0.000791
Ta 2.34759 4.06598 11.52478 0.0 0.000279 -0.00135
Ta 0.0 5.42175 13.45118 0.0 -0.000329 -0.001033
Ta 0.0 8.13214 11.52478 0.0 0.000279 -0.00135
Ta 2.34759 1.35559 13.45118 0.0 -0.000329 -0.001033
Ta 2.34759 4.06624 14.38799 0.0 0.000351 -0.000576
Ta 0.0 5.4218 16.39523 0.0 -0.000453 0.0004
Ta 2.34759 6.77687 15.2766 0.0 0.000189 0.001532
Ta 2.34759 6.77657 17.90814 0.0 -0.000603 -0.00011
Ta 0.0 9e-05 14.38799 0.0 0.000351 -0.000576
Ta 2.34759 1.35564 16.39523 0.0 -0.000453 0.0004
Ta 0.0 2.71072 15.2766 0.0 0.000189 0.001532
Ta 0.0 2.71042 17.90814 0.0 -0.000603 -0.00011
Ta 2.34759 4.06617 17.17945 0.0 -0.000157 -0.000235
Ta 0.0 2e-05 17.17945 0.0 -0.000157 -0.000235
24
Lattice = "4.69519013405 0.0 0.0 0.0 3.32 0.0 0.0 0.0 53.12" Properties=species:S:1:pos:R:3:forces:R:3 energy=-279.635146 stress="-21250.23 0.0 0.0 0.0 -20345.210000000003 0.0 0.0 0.0 -14676.96"
Ta 2.34759 1.66 0.0 0.0 0.0 0.48507
Ta 0.0 0.0 0.0 0.0 0.0 0.48507
Ta 0.0 1.66 2.34759 0.0 0.0 -0.412878
Ta 2.34759 0.0 2.34759 0.0 0.0 -0.412878
Ta 2.34759 1.66 4.69519 0.0 0.0 -0.096961
Ta 0.0 0.0 4.69519 0.0 0.0 -0.096961
Ta 0.0 1.66 7.04278 0.0 0.0 0.008179
Ta 2.34759 0.0 7.04278 0.0 0.0 0.008179
Ta 2.34759 1.66 9.39038 0.0 0.0 -0.003881
Ta 0.0 0.0 9.39038 0.0 0.0 -0.003881
Ta 0.0 1.66 11.738 0.0 0.0 0.002591
Ta 2.34759 0.0 11.738 0.0 0.0 0.002591
Ta 2.34759 1.66 14.0856 0.0 0.0 -0.002591
Ta 0.0 0.0 14.0856 0.0 0.0 -0.002591
Ta 0.0 1.66 16.4332 0.0 0.0 0.003881
Ta 2.34759 0.0 16.4332 0.0 0.0 0.003881
Ta 2.34759 1.66 18.7808 0.0 0.0 -0.008179
Ta 0.0 0.0 18.7808 0.0 0.0 -0.008179
Ta 0.0 1.66 21.1284 0.0 0.0 0.096961
Ta 2.34759 0.0 21.1284 0.0 0.0 0.096961
Ta 2.34759 1.66 23.4759 0.0 0.0 0.412878
Ta 0.0 0.0 23.4759 0.0 0.0 0.412878
Ta 0.0 1.66 25.8235 0.0 0.0 -0.48507
Ta 2.34759 0.0 25.8235 0.0 0.0 -0.48507
30
Lattice = "5.75040976524 0.0 0.0 0.0 4.69518993616 0.0 0.0 0.0 39.84" Properties=species:S:1:pos:R:3:forces:R:3 energy=-346.592525 stress="-9399.49 0.0 -208.25 0.0 -11819.32 0.0 -208.25 0.0 132.24"
Ta 0.9892 0.0 2.7203 0.001551 0.0 -0.000488
Ta 0.00727 2.34759 4.07239 0.001169 0.0 -0.000766
Ta 2.88247 2.34759 4.07239 0.001169 0.0 -0.000766
Ta 0.17997 0.0 0.18449 0.002466 0.0 -0.001108
Ta 3.05517 0.0 0.18449 0.002466 0.0 -0.001108
Ta 1.87083 2.34759 1.32776 -0.000874 0.0 -0.001517
Ta 4.74604 2.34759 1.32776 -0.000874 0.0 -0.001517
Ta 3.86441 0.0 2.7203 0.001551 0.0 -0.000488
Ta 0.94648 2.34759 6.77133 0.00042 0.0 -0.000294
Ta 0.00117 0.0 8.1367 0.000452 0.0 9.6e-05
Ta 2.87637 0.0 8.1367 0.000452 0.0 9.6e-05
Ta 1.91123 0.0 5.41489 0.001544 0.0 -5.7e-05
Ta 4.78644 0.0 5.41489 0.001544 0.0 -5.7e-05
Ta 3.82169 2.34759 6.77133 0.00042 0.0 -0.000294
Ta 0.95723 0.0 10.83871 -0.000452 0.0 -9.6e-05
Ta 0.01192 2.34759 12.20409 -0.00042 0.0 0.000294
Ta 2.88712 2.34759 12.20409 -0.00042 0.0 0.000294
Ta 1.9168 2.34759 9.48769 0.0 0.0 0.0
Ta 4.79201 2.34759 9.48769 0.0 0.0 0.0
Ta 3.83244 0.0 10.83871 -0.000452 0.0 -9.6e-05
Ta 0.95113 2.34759 14.90296 -0.001169 0.0 0.000766
Ta 5.71961 0.0 16.25507 -0.001551 0.0 0.000488
Ta 2.8444 0.0 16.25507 -0.001551 0.0 0.000488
Ta 1.96277 2.34759 17.64762 0.000874 0.0 0.001517
Ta 4.83798 2.34759 17.64762 0.000874 0.0 0.001517
Ta 1.92237 0.0 13.56045 -0.001544 0.0 5.7e-05
Ta 4.79758 0.0 13.56045 -0.001544 0.0 5.7e-05
Ta 3.82634 2.34759 14.90296 -0.001169 0.0 0.000766
Ta 0.77843 0.0 18.79091 -0.002466 0.0 0.001108
Ta 3.65364 0.0 18.79091 -0.002466 0.0 0.001108
30
Lattice = "5.75040976524 0.0 0.0 0.0 4.69518993616 0.0 0.0 0.0 39.84" Properties=species:S:1:pos:R:3:forces:R:3 energy=-345.744506 stress="-26530.08 0.0 -2915.02 0.0 -25603.77 0.0 -2915.02 0.0 -21262.54"
Ta 0.9584 0.0 2.71077 0.048753 0.0 -0.789488
Ta 0.0 2.34759 4.06615 0.000543 0.0 0.103698
Ta 2.8752 2.34759 4.06615 0.000543 0.0 0.103698
Ta 0.0 0.0 0.0 0.302653 0.0 1.1858
Ta 2.8752 0.0 0.0 0.302653 0.0 1.1858
Ta 1.9168 2.34759 1.35538 -0.326078 0.0 -0.402735
Ta 4.79201 2.34759 1.35538 -0.326078 0.0 -0.402735
Ta 3.83361 0.0 2.71077 0.048753 0.0 -0.789488
Ta 0.9584 2.34759 6.77692 -0.058605 0.0 -0.050501
Ta 0.0 0.0 8.13231 0.022525 0.0 0.111412
Ta 2.8752 0.0 8.13231 0.022525 0.0 0.111412
Ta 1.9168 0.0 5.42154 0.017191 0.0 -0.139574
Ta 4.79201 0.0 5.42154 0.017191 0.0 -0.139574
Ta 3.83361 2.34759 6.77692 -0.058605 0.0 -0.050501
Ta 0.9584 0.0 10.8431 -0.022525 0.0 -0.111412
Ta 0.0 2.34759 12.1985 0.058605 0.0 0.050501
Ta 2.8752 2.34759 12.1985 0.058605 0.0 0.050501
Ta 1.9168 2.34759 9.48769 0.0 0.0 0.0
Ta 4.79201 2.34759 9.48769 0.0 0.0 0.0
Ta 3.83361 0.0 10.8431 -0.022525 0.0 -0.111412
Ta 0.9584 2.34759 14.9092 -0.000543 0.0 -0.103698
Ta 0.0 0.0 16.2646 -0.048753 0.0 0.789488
Ta 2.8752 0.0 16.2646 -0.048753 0.0 0.789488
Ta 1.9168 2.34759 17.62 0.326078 0.0 0.402735
Ta 4.79201 2.34759 17.62 0.326078 0.0 0.402735
Ta 1.9168 0.0 13.5538 -0.017191 0.0 0.139574
Ta 4.79201 0.0 13.5538 -0.017191 0.0 0.139574
Ta 3.83361 2.34759 14.9092 -0.000543 0.0 -0.103698
Ta 0.9584 0.0 18.9754 -0.302653 0.0 -1.1858
Ta 3.83361 0.0 18.9754 -0.302653 0.0 -1.1858
